
 ANSYS Mechanical Enterprise                       


 *------------------------------------------------------------------*
 |                                                                  |
 |   W E L C O M E   T O   T H E   A N S Y S (R)  P R O G R A M     |
 |                                                                  |
 *------------------------------------------------------------------*




 ***************************************************************
 *            ANSYS 2020 R1          LEGAL NOTICES             *
 ***************************************************************
 *                                                             *
 * Copyright 1971-2020 ANSYS, Inc.  All rights reserved.       *
 * Unauthorized use, distribution or duplication is            *
 * prohibited.                                                 *
 *                                                             *
 * Ansys is a registered trademark of ANSYS, Inc. or its       *
 * subsidiaries in the United States or other countries.       *
 * See the ANSYS, Inc. online documentation or the ANSYS, Inc. *
 * documentation CD or online help for the complete Legal      *
 * Notice.                                                     *
 *                                                             *
 ***************************************************************
 *                                                             *
 * THIS ANSYS SOFTWARE PRODUCT AND PROGRAM DOCUMENTATION       *
 * INCLUDE TRADE SECRETS AND CONFIDENTIAL AND PROPRIETARY      *
 * PRODUCTS OF ANSYS, INC., ITS SUBSIDIARIES, OR LICENSORS.    *
 * The software products and documentation are furnished by    *
 * ANSYS, Inc. or its subsidiaries under a software license    *
 * agreement that contains provisions concerning               *
 * non-disclosure, copying, length and nature of use,          *
 * compliance with exporting laws, warranties, disclaimers,    *
 * limitations of liability, and remedies, and other           *
 * provisions.  The software products and documentation may be *
 * used, disclosed, transferred, or copied only in accordance  *
 * with the terms and conditions of that software license      *
 * agreement.                                                  *
 *                                                             *
 * ANSYS, Inc. is a UL registered                              *
 * ISO 9001:2015 company.                                      *
 *                                                             *
 ***************************************************************
 *                                                             *
 * This product is subject to U.S. laws governing export and   *
 * re-export.                                                  *
 *                                                             *
 * For U.S. Government users, except as specifically granted   *
 * by the ANSYS, Inc. software license agreement, the use,     *
 * duplication, or disclosure by the United States Government  *
 * is subject to restrictions stated in the ANSYS, Inc.        *
 * software license agreement and FAR 12.212 (for non-DOD      *
 * licenses).                                                  *
 *                                                             *
 ***************************************************************

 2020 R1 
     
 Point Releases and Patches installed:   
     
 ANSYS, Inc. Products 2020 R1
 SpaceClaim 2020 R1  
 AIM 2020 R1 
 Live (includes SpaceClaim) 2020 R1  
 Autodyn 2020 R1 
 LS-DYNA 2020 R1 
 CFX (includes CFD-Post) 2020 R1 
 Chemkin 2020 R1 
 EnSight 2020 R1 
 FENSAP-ICE 2020 R1  
 Fluent (includes CFD-Post) 2020 R1  
 Forte 2020 R1   
 Polyflow (includes CFD-Post) 2020 R1
 TurboGrid 2020 R1   
 ICEM CFD 2020 R1
 Aqwa 2020 R1
 Customization Files for User Programmable Features 2020 R1  
 Mechanical Products 2020 R1 
 Additive 2020 R1
 ANSYS Sherlock 2020 R1  
 Icepak (includes CFD-Post) 2020 R1  
 ACIS Geometry Interface 2020 R1 
 AutoCAD Geometry Interface 2020 R1  
 Catia, Version 4 Geometry Interface 2020 R1 
 Catia, Version 5 Geometry Interface 2020 R1 
 Catia, Version 6 Geometry Interface 2020 R1 
 Creo Elements/Direct Modeling Geometry Interface 2020 R1
 Creo Parametric Geometry Interface 2020 R1  
 Inventor Geometry Interface 2020 R1 
 JTOpen Geometry Interface 2020 R1   
 NX Geometry Interface 2020 R1   
 Parasolid Geometry Interface  2020 R1   
 Solid Edge Geometry Interface 2020 R1   
 SOLIDWORKS Geometry Interface 2020 R1   
 ANSYS, Inc. License Manager 2020 R1 


          *****  ANSYS COMMAND LINE ARGUMENTS  *****
  BATCH MODE REQUESTED (-b)    = NOLIST
  INPUT FILE COPY MODE (-c)    = COPY
  DISTRIBUTED MEMORY PARALLEL REQUESTED
       2 PARALLEL PROCESSES REQUESTED WITH SINGLE THREAD PER PROCESS
    TOTAL OF     2 CORES REQUESTED
  INPUT FILE NAME              = C:\Users\Akash Levy\Documents\NEM-Relay-CAD\_ProjectScratch\ScrAC77\dummy.dat
  OUTPUT FILE NAME             = C:\Users\Akash Levy\Documents\NEM-Relay-CAD\_ProjectScratch\ScrAC77\solve.out
  START-UP FILE MODE           = NOREAD
  STOP FILE MODE               = NOREAD

 RELEASE= 2020 R1              BUILD= 20.1      UP20191203   VERSION=WINDOWS x64 
 CURRENT JOBNAME=file0  01:58:35  APR 04, 2020 CP=      0.453


 PARAMETER _DS_PROGRESS =     999.0000000    

 /INPUT FILE= ds.dat  LINE=       0



 *** NOTE ***                            CP =       0.625   TIME= 01:58:36
 The /CONFIG,NOELDB command is not valid in a Distributed ANSYS          
 solution.  Command is ignored.                                          

 *GET  _WALLSTRT  FROM  ACTI  ITEM=TIME WALL  VALUE=  1.97666667    

 TITLE= 
 relay--EM Transient Full (E5)                                                 


 SET PARAMETER DIMENSIONS ON  _WB_PROJECTSCRATCH_DIR
  TYPE=STRI  DIMENSIONS=      248        1        1

 PARAMETER _WB_PROJECTSCRATCH_DIR(1) = C:\Users\Akash Levy\Documents\NEM-Relay-CAD\_ProjectScratch\ScrAC77\

 SET PARAMETER DIMENSIONS ON  _WB_SOLVERFILES_DIR
  TYPE=STRI  DIMENSIONS=      248        1        1

 PARAMETER _WB_SOLVERFILES_DIR(1) = C:\Users\Akash Levy\Documents\NEM-Relay-CAD\relay_files\dp0\SYS-9\MECH\

 SET PARAMETER DIMENSIONS ON  _WB_USERFILES_DIR
  TYPE=STRI  DIMENSIONS=      248        1        1

 PARAMETER _WB_USERFILES_DIR(1) = C:\Users\Akash Levy\Documents\NEM-Relay-CAD\relay_files\user_files\
 --- Data in consistent MKS units. See Solving Units in the help system for more

 MKS UNITS SPECIFIED FOR INTERNAL    
  LENGTH        (l)  = METER (M)
  MASS          (M)  = KILOGRAM (KG)
  TIME          (t)  = SECOND (SEC)
  TEMPERATURE   (T)  = CELSIUS (C)
  TOFFSET            = 273.0
  CHARGE        (Q)  = COULOMB
  FORCE         (f)  = NEWTON (N) (KG-M/SEC2)
  HEAT               = JOULE (N-M)

  PRESSURE           = PASCAL (NEWTON/M**2)
  ENERGY        (W)  = JOULE (N-M)
  POWER         (P)  = WATT (N-M/SEC)
  CURRENT       (i)  = AMPERE (COULOMBS/SEC)
  CAPACITANCE   (C)  = FARAD
  INDUCTANCE    (L)  = HENRY
  MAGNETIC FLUX      = WEBER
  RESISTANCE    (R)  = OHM
  ELECTRIC POTENTIAL = VOLT

 INPUT  UNITS ARE ALSO SET TO MKS 

 *** ANSYS - ENGINEERING ANALYSIS SYSTEM  RELEASE 2020 R1          20.1     ***
 DISTRIBUTED ANSYS Mechanical Enterprise                       

 20120530  VERSION=WINDOWS x64   01:58:36  APR 04, 2020 CP=      0.656

 relay--EM Transient Full (E5)                                                 



          ***** ANSYS ANALYSIS DEFINITION (PREP7) *****
 *********** Nodes for the whole assembly ***********
 *********** Elements for Body 1 "relay\Solid" ***********
 *********** Send User Defined Coordinate System(s) ***********
 *********** Set Reference Temperature ***********
 *********** Send Materials ***********
 *********** Fixed Supports ***********
 *********** Construct Weak Springs, Prototype 1 ***********
 *********** Create Structural MEMS Load ***********
  
 *** EMTGEN Command Macro
  

 *** NOTE *** Display device has not yet been specified with the /SHOW command.  Display commands ignored. 

  LISTING OF THE DATA ON FILE _emtgen.out
  
  ____________________ EMTGEN MACRO SUMMARY ________________________
  
  Macro has generated successfully 1746 TRANS126 elements.
  
  Component of structural boundary nodes: _CMMEMS348 .
  Component name of generated EMT elements = EMTELM .
  Component name of generated EMT plane nodes = _CM348 .
  Active structural DOF for TRANS126 elements = UZ .
  Initial gap between I and J nodes of EMT element = 1.E-07 .
  Minimal gap between I and J nodes = 4.E-08 .
  Modulus of elasticity for EMT contact stiffness = 1.45E+09 .
  Free-space permittivity value = 8.854E-12 .
  EMT stiffness method = FULL .
  
  ______________________________________________________________________


 ***** ROUTINE COMPLETED *****  CP =        10.219


 --- Number of total nodes = 12494
 --- Number of contact elements = 0
 --- Number of spring elements = 24
 --- Number of bearing elements = 0
 --- Number of solid elements = 5460
 --- Number of condensed parts = 0
 --- Number of total elements = 7230

 *GET  _WALLBSOL  FROM  ACTI  ITEM=TIME WALL  VALUE=  1.98083333    
 ****************************************************************************
 *************************    SOLUTION       ********************************
 ****************************************************************************

 *****  ANSYS SOLUTION ROUTINE  *****


 PERFORM A TRANSIENT ANALYSIS
  THIS WILL BE A NEW ANALYSIS

 LARGE DEFORMATION ANALYSIS

 STEP BOUNDARY CONDITION KEY= 1

 PARAMETER _THICKRATIO =     0.000000000    

 USE SPARSE MATRIX DIRECT SOLVER

 CONTACT INFORMATION PRINTOUT LEVEL       1

 DO NOT COMBINE ELEMENT MATRIX FILES (.emat) AFTER DISTRIBUTED PARALLEL SOLUTION

 DO NOT COMBINE ELEMENT SAVE DATA FILES (.esav) AFTER DISTRIBUTED PARALLEL SOLUTION

 PERFORM A FULL TRANSIENT ANALYSIS
  USING HHT ALGORITHM

 USE SETTINGS FOR MODERATE SPEED DYNAMIIC APPLICATIONS
 SECOND ORDER TRANSIENT PARAMETERS
   GAMMA= 0.1000      (ALPHA= 0.3025      DELTA= 0.6000      ALPHAF= 0.1000      ALPHAM=  0.000    )

 USE DEFAULT FIRST ORDER TRANSIENT PARAMETER THETA= 0.5000    

 USE DEFAULT FIRST ORDER OSCILLATION LIMIT OF  0.5000     FOR AUTO LOADING
  WITH A TOLERANCE OF  0.2000    

 NLDIAG: Nonlinear diagnostics CONT option is set to ON. 
         Writing frequency : each ITERATION.

 DEFINE RESTART CONTROL FOR LOADSTEP LAST
 AT FREQUENCY OF LAST AND NUMBER FOR OVERWRITE IS   -1

 DELETE RESTART FILES OF ENDSTEP
 ****************************************************
 ******************* SOLVE FOR LS 1 OF 3 ****************

 PRINTOUT RESUMED BY /GOP

 SPECIFIED CONSTRAINT VOLT FOR PICKED NODES 
 REAL=_LOADVARI348   IMAG=  0.00000000    

 SPECIFIED CONSTRAINT VOLT FOR PICKED NODES 
 REAL=  0.00000000       IMAG=  0.00000000    

 SPECIFIED CONSTRAINT UX   FOR PICKED NODES 
 REAL=  0.00000000       IMAG=  0.00000000    

 SPECIFIED CONSTRAINT UY   FOR PICKED NODES 
 REAL=  0.00000000       IMAG=  0.00000000    

 SPECIFIED CONSTRAINT UZ   FOR PICKED NODES 
 REAL=  0.00000000       IMAG=  0.00000000    

 ALL SELECT   FOR ITEM=NODE COMPONENT=    
  IN RANGE         1 TO      12494 STEP          1

      12494  NODES (OF      12494  DEFINED) SELECTED BY NSEL  COMMAND.

 ALL SELECT   FOR ITEM=ELEM COMPONENT=    
  IN RANGE         1 TO       7230 STEP          1

       7230  ELEMENTS (OF       7230  DEFINED) SELECTED BY  ESEL  COMMAND.

 USE AUTOMATIC TIME STEPPING THIS LOAD STEP

 USE INITIAL TIME STEP SIZE OF 0.1000000E-08 FOR ALL  DEGREES OF FREEDOM
 FOR AUTOMATIC TIME STEPPING:
   USE 0.1000000E-09 AS THE MINIMUM TIME STEP SIZE
   USE 0.5000000E-08 AS THE MAXIMUM TIME STEP SIZE

 TIME= 0.20000E-06

 INCLUDE TRANSIENT EFFECTS FOR  ALL DEGREES OF FREEDOM THIS LOAD STEP

 ERASE THE CURRENT DATABASE OUTPUT CONTROL TABLE.


 WRITE ALL  ITEMS TO THE DATABASE WITH A FREQUENCY OF NONE
   FOR ALL APPLICABLE ENTITIES

 WRITE NSOL ITEMS TO THE DATABASE WITH A FREQUENCY OF ALL 
   FOR ALL APPLICABLE ENTITIES

 WRITE RSOL ITEMS TO THE DATABASE WITH A FREQUENCY OF ALL 
   FOR ALL APPLICABLE ENTITIES

 WRITE EANG ITEMS TO THE DATABASE WITH A FREQUENCY OF ALL 
   FOR ALL APPLICABLE ENTITIES

 WRITE ETMP ITEMS TO THE DATABASE WITH A FREQUENCY OF ALL 
   FOR ALL APPLICABLE ENTITIES

 WRITE VENG ITEMS TO THE DATABASE WITH A FREQUENCY OF ALL 
   FOR ALL APPLICABLE ENTITIES

 WRITE NLOA ITEMS TO THE DATABASE WITH A FREQUENCY OF ALL 
   FOR ALL APPLICABLE ENTITIES

 WRITE STRS ITEMS TO THE DATABASE WITH A FREQUENCY OF ALL 
   FOR ALL APPLICABLE ENTITIES

 WRITE EPEL ITEMS TO THE DATABASE WITH A FREQUENCY OF ALL 
   FOR ALL APPLICABLE ENTITIES

 WRITE EPPL ITEMS TO THE DATABASE WITH A FREQUENCY OF ALL 
   FOR ALL APPLICABLE ENTITIES

 WRITE CONT ITEMS TO THE DATABASE WITH A FREQUENCY OF ALL 
   FOR ALL APPLICABLE ENTITIES

 WRITE V    ITEMS TO THE DATABASE WITH A FREQUENCY OF ALL 
   FOR ALL APPLICABLE ENTITIES

 WRITE A    ITEMS TO THE DATABASE WITH A FREQUENCY OF ALL 
   FOR ALL APPLICABLE ENTITIES

 PARAMETER ARG1 =     4.700000000    

 PARAMETER ARG2 =     1.000000000    

 PARAMETER EPSR =     4.700000000    

 PARAMETER KN =     1.000000000    

 FINISH SOLUTION PROCESSING


 ***** ROUTINE COMPLETED *****  CP =        10.312



 *** ANSYS - ENGINEERING ANALYSIS SYSTEM  RELEASE 2020 R1          20.1     ***
 DISTRIBUTED ANSYS Mechanical Enterprise                       

 20120530  VERSION=WINDOWS x64   01:58:51  APR 04, 2020 CP=     10.312

                                                                               



          ***** ANSYS ANALYSIS DEFINITION (PREP7) *****

 SELECT       FOR ITEM=ENAM COMPONENT=    
  IN RANGE       126 TO        126 STEP          1

       1746  ELEMENTS (OF       7230  DEFINED) SELECTED BY  ESEL  COMMAND.

 *GET  NELEMS    FROM  ELEM  ITEM=COUN           VALUE=  1746.00000    

 PARAMETER ELM =     0.000000000    

 *DO LOOP ON PARAMETER= I FROM  1.0000     TO  1746.0     BY  1.0000    

 PARAMETER ELM =     5485.000000    

 *GET  RNUM      FROM  ELEM      5485  ITEM=ATTR REAL      VALUE=  4.00000000    

 *GET  R7        FROM  RCON      4  ITEM=CONS 7     VALUE= 0.788230866E-25

 PARAMETER R7_NEW =    0.3704685070E-24

 MODIFY REAL CONSTANTS FOR SET      4  STARTING WITH  7  NEW VALUES ARE

   0.37047E-24   0.0000       0.0000       0.0000       0.0000       0.0000    

 *GET  R5        FROM  RCON      4  ITEM=CONS 5     VALUE=  129.086826    

 PARAMETER R5_NEW =     129.0868258    

 MODIFY REAL CONSTANTS FOR SET      4  STARTING WITH  5  NEW VALUES ARE

    129.09       0.0000      0.37047E-24   0.0000       0.0000       0.0000    

 *ENDDO  INDEX= I                               


 ***** ROUTINE COMPLETED *****  CP =        10.625



 *****  ANSYS SOLUTION ROUTINE  *****

 SELECT ALL ENTITIES OF TYPE= ALL  AND BELOW

 *GET  ANSINTER_  FROM  ACTI  ITEM=INT        VALUE=  0.00000000    

 *IF  ANSINTER_                         ( =   0.00000     )  NE  
      0                                 ( =   0.00000     )  THEN    

 *ENDIF

 *** NOTE ***                            CP =      10.641   TIME= 01:58:51
 The automatic domain decomposition logic has selected the MESH domain   
 decomposition method with 2 processes per solution.                     

 *****  ANSYS SOLVE    COMMAND  *****

 *** NOTE ***                            CP =      10.656   TIME= 01:58:51
 There is no title defined for this analysis.                            

 *** WARNING ***                         CP =      10.656   TIME= 01:58:51
 Element shape checking is currently inactive.  Issue SHPP,ON or         
 SHPP,WARN to reactivate, if desired.                                    

 *** NOTE ***                            CP =      10.688   TIME= 01:58:51
 The model data was checked and warning messages were found.             
  Please review output or errors file ( C:\Users\Akash                   
 Levy\Documents\NEM-Relay-CAD\_ProjectScratch\ScrAC77\file0.err ) for    
 these warning messages.                                                 

 *** SELECTION OF ELEMENT TECHNOLOGIES FOR APPLICABLE ELEMENTS ***
      --- GIVE SUGGESTIONS AND RESET THE KEY OPTIONS ---

 ELEMENT TYPE    1 IS SOLID187. IT IS NOT ASSOCIATED WITH FULLY INCOMPRESSIBLE
 HYPERELASTIC MATERIALS. NO SUGGESTION IS AVAILABLE AND NO RESETTING IS NEEDED.



 *** ANSYS - ENGINEERING ANALYSIS SYSTEM  RELEASE 2020 R1          20.1     ***
 DISTRIBUTED ANSYS Mechanical Enterprise                       

 20120530  VERSION=WINDOWS x64   01:58:51  APR 04, 2020 CP=     10.688

                                                                               



                       S O L U T I O N   O P T I O N S

   PROBLEM DIMENSIONALITY. . . . . . . . . . . . .3-D                  
   DEGREES OF FREEDOM. . . . . . UX   UY   UZ   VOLT
   ANALYSIS TYPE . . . . . . . . . . . . . . . . .TRANSIENT            
      SOLUTION METHOD. . . . . . . . . . . . . . .FULL                 
   OFFSET TEMPERATURE FROM ABSOLUTE ZERO . . . . .  273.15    
   NONLINEAR GEOMETRIC EFFECTS . . . . . . . . . .ON
   EQUATION SOLVER OPTION. . . . . . . . . . . . .SPARSE             
   NEWTON-RAPHSON OPTION . . . . . . . . . . . . .PROGRAM CHOSEN   
   GLOBALLY ASSEMBLED MATRIX . . . . . . . . . . .UNSYMMETRIC

 *** WARNING ***                         CP =      10.688   TIME= 01:58:51
 Material number 3 (used by element 5461) should normally have at least  
 one MP or one TB type command associated with it.  Output of energy by  
 material may not be available.                                          

 *** NOTE ***                            CP =      10.719   TIME= 01:58:51
 The step data was checked and warning messages were found.              
  Please review output or errors file ( C:\Users\Akash                   
 Levy\Documents\NEM-Relay-CAD\_ProjectScratch\ScrAC77\file0.err ) for    
 these warning messages.                                                 

 *** NOTE ***                            CP =      10.719   TIME= 01:58:51
 The Solution Control Option is only valid for single field structural,  
 single field thermal, single field diffusion, coupled                   
 thermal-diffusion analyses and coupled-field analyses with structural   
 degrees of freedom.  The SOLCONTROL,ON command (if present) has been    
 de-activated.                                                           

 *** NOTE ***                            CP =      10.719   TIME= 01:58:51
 This nonlinear analysis defaults to using the full Newton-Raphson       
 solution procedure.  This can be modified using the NROPT command.      

  
  
     D I S T R I B U T E D   D O M A I N   D E C O M P O S E R
  
  ...Number of elements: 7230
  ...Number of nodes:    12494
  ...Decompose to 2 CPU domains
  ...Element load balance ratio =     1.245


                      L O A D   S T E P   O P T I O N S

   LOAD STEP NUMBER. . . . . . . . . . . . . . . .     1
   TIME AT END OF THE LOAD STEP. . . . . . . . . . 0.20000E-06
   AUTOMATIC TIME STEPPING . . . . . . . . . . . .    ON
      STARTING TIME STEP SIZE. . . . . . . . . . . 0.10000E-08
      MINIMUM TIME STEP SIZE . . . . . . . . . . . 0.10000E-09
      MAXIMUM TIME STEP SIZE . . . . . . . . . . . 0.50000E-08
   MAXIMUM NUMBER OF EQUILIBRIUM ITERATIONS. . . .    25
   STEP CHANGE BOUNDARY CONDITIONS . . . . . . . .   YES
   TRANSIENT (INERTIA) EFFECTS
      STRUCTURAL DOFS. . . . . . . . . . . . . . .    ON
      ELECTRIC DOFS. . . . . . . . . . . . . . . .    ON
   TRANSIENT INTEGRATION PARAMETERS
      GAMMA. . . . . . . . . . . . . . . . . . . . 0.10000    
      ALPHA. . . . . . . . . . . . . . . . . . . . 0.30250    
      DELTA. . . . . . . . . . . . . . . . . . . . 0.60000    
      USING HHT TIME INTEGRATION
      ALPHAF . . . . . . . . . . . . . . . . . . . 0.10000    
      ALPHAM . . . . . . . . . . . . . . . . . . .  0.0000    
      THETA. . . . . . . . . . . . . . . . . . . . 0.50000    
      OSCILLATION LIMIT CRITERION. . . . . . . . . 0.50000    
      TOLERANCE. . . . . . . . . . . . . . . . . . 0.20000    
   TERMINATE ANALYSIS IF NOT CONVERGED . . . . . .YES (EXIT)  
   CONVERGENCE CONTROLS. . . . . . . . . . . . . .USE DEFAULTS
   PRINT OUTPUT CONTROLS . . . . . . . . . . . . .NO PRINTOUT
   DATABASE OUTPUT CONTROLS
      ITEM     FREQUENCY   COMPONENT
       ALL       NONE               
      NSOL        ALL               
      RSOL        ALL               
      EANG        ALL               
      ETMP        ALL               
      VENG        ALL               
      NLOA        ALL               
      STRS        ALL               
      EPEL        ALL               
      EPPL        ALL               
      CONT        ALL               
      V           ALL               
      A           ALL               




                         ***********  PRECISE MASS SUMMARY  ***********

   TOTAL RIGID BODY MASS MATRIX ABOUT ORIGIN
               Translational mass               |   Coupled translational/rotational mass
        0.11050E-13    0.0000        0.0000     |     0.0000       0.10498E-20   0.22569E-35
         0.0000       0.11050E-13    0.0000     |   -0.10498E-20    0.0000      -0.14294E-34
         0.0000        0.0000       0.11050E-13 |   -0.15046E-35   0.14294E-34    0.0000    
     ------------------------------------------ | ------------------------------------------
                                                |         Rotational mass (inertia)
                                                |    0.16158E-25   0.35807E-32   0.89235E-40
                                                |    0.35807E-32   0.16158E-25   0.22851E-39
                                                |    0.89145E-40   0.22865E-39   0.32029E-25

   TOTAL MASS = 0.11050E-13
     The mass principal axes coincide with the global Cartesian axes

   CENTER OF MASS (X,Y,Z)=  -0.12936E-20  -0.20425E-21   0.95006E-07

   TOTAL INERTIA ABOUT CENTER OF MASS
        0.16058E-25   0.35807E-32   0.87877E-40
        0.35807E-32   0.16058E-25   0.22830E-39
        0.87877E-40   0.22830E-39   0.32029E-25
     The inertia principal axes coincide with the global Cartesian axes


  *** MASS SUMMARY BY ELEMENT TYPE ***

  TYPE      MASS
     1  0.110497E-13

 Range of element maximum matrix coefficients in global coordinates
 Maximum = 103911.963 at element 3407.                                   
 Minimum = 5195.82996 at element 35.                                     

   *** ELEMENT MATRIX FORMULATION TIMES
     TYPE    NUMBER   ENAME      TOTAL CP  AVE CP

        1      5460  SOLID187      0.766   0.000140
        2        24  COMBIN14      0.000   0.000000
        3      1746  TRANS126      0.016   0.000009
 Time at end of element matrix formulation CP = 11.46875.                

 ALL CURRENT ANSYS DATA WRITTEN TO FILE NAME= file.rdb
  FOR POSSIBLE RESUME FROM THIS POINT
     FORCE CONVERGENCE VALUE  =  0.6221E-20  CRITERION=  0.1000E-02
     CURRENT CONVERGENCE VALUE=   0.000      CRITERION=   0.000    

 DISTRIBUTED SPARSE MATRIX DIRECT SOLVER.
  Number of equations =       31920,    Maximum wavefront =    460

  Local memory allocated for solver              =    115.797 MB
  Local memory required for in-core solution     =     95.152 MB
  Local memory required for out-of-core solution =     40.218 MB

  Total memory allocated for solver              =    231.476 MB
  Total memory required for in-core solution     =    190.075 MB
  Total memory required for out-of-core solution =     80.104 MB

 *** NOTE ***                            CP =      12.031   TIME= 01:58:54
 The Distributed Sparse Matrix Solver is currently running in the        
 in-core memory mode.  This memory mode uses the most amount of memory   
 in order to avoid using the hard drive as much as possible, which most  
 often results in the fastest solution time.  This mode is recommended   
 if enough physical memory is present to accommodate all of the solver   
 data.                                                                   

 *** WARNING ***                         CP =      12.031   TIME= 01:58:54
 Pivoting has been activated for the Distributed Sparse Matrix Solver .  
 The memory required may greatly exceed the predicted amount.  In that   
 event, use the DSPOPTION command to change the memory mode and/or       
 memory size used by the Distributed Sparse Matrix Solver.               

 *** NOTE ***                            CP =      12.031   TIME= 01:58:54
 The system matrix is unsymmetric.                                       
 curEqn=  15759  totEqn=  15759 Job CP sec=     12.641
      Factor Done=  99% Factor Wall sec=      1.433 rate=    1827.0 Mflops
 Distributed sparse solver maximum pivot= 148175.188 at node 7644 UZ.    
 Distributed sparse solver minimum pivot= 483.026015 at node 724 UZ.     
 Distributed sparse solver minimum pivot in absolute value= 483.026015   
 at node 724 UZ.                                                         
    EQUIL ITER   1 COMPLETED.  NEW TRIANG MATRIX.  MAX DOF INC=   4.000    
     FORCE CONVERGENCE VALUE  =  0.1244E-07  CRITERION=  0.1000E-02 <<< CONVERGED

 *** WARNING ***                         CP =      13.125   TIME= 01:58:58
 A reference force value times the tolerance is used by the              
 Newton-Raphson method for checking convergence.  The calculated         
 reference FORCE CONVERGENCE VALUE = 1.244204977E-08 is less than a      
 threshold.  This threshold defaults to 1.0 or is specified as MINREF    
 on the CNVTOL command.  Check results carefully.                        
     CURRENT CONVERGENCE VALUE=   0.000      CRITERION=  0.8915E-25 <<< CONVERGED
     FORCE CONVERGENCE VALUE  =  0.1244E-07  CRITERION=  0.1000E-02 <<< CONVERGED
     CURRENT CONVERGENCE VALUE=   0.000      CRITERION=  0.8915E-25 <<< CONVERGED
    >>> SOLUTION CONVERGED AFTER EQUILIBRIUM ITERATION   2

   *** ELEMENT RESULT CALCULATION TIMES
     TYPE    NUMBER   ENAME      TOTAL CP  AVE CP

        1      5460  SOLID187      0.703   0.000129
        2        24  COMBIN14      0.000   0.000000
        3      1746  TRANS126      0.000   0.000000

   *** NODAL LOAD CALCULATION TIMES
     TYPE    NUMBER   ENAME      TOTAL CP  AVE CP

        1      5460  SOLID187      0.219   0.000040
        2        24  COMBIN14      0.000   0.000000
        3      1746  TRANS126      0.031   0.000018
 *** LOAD STEP     1   SUBSTEP     1  COMPLETED.    CUM ITER =      2
 *** TIME =  0.100000E-08     TIME INC =  0.100000E-08
 *** RESPONSE EIGENVALUE = 0.1553E-06   OSCILLATION LIMIT = 0.1553E-15
 *** AUTO STEP TIME:  NEXT TIME INC = 0.10000E-08  UNCHANGED

     FORCE CONVERGENCE VALUE  =  0.1244E-07  CRITERION=  0.1000E-02
     CURRENT CONVERGENCE VALUE=   0.000      CRITERION=  0.6889E-25
    EQUIL ITER   1 COMPLETED.  NEW TRIANG MATRIX.  MAX DOF INC=  0.1272E-10
     FORCE CONVERGENCE VALUE  =  0.1398E-08  CRITERION=  0.1000E-02 <<< CONVERGED
     CURRENT CONVERGENCE VALUE=   0.000      CRITERION=  0.1605E-12 <<< CONVERGED
    >>> SOLUTION CONVERGED AFTER EQUILIBRIUM ITERATION   1
 *** LOAD STEP     1   SUBSTEP     2  COMPLETED.    CUM ITER =      3
 *** TIME =  0.200000E-08     TIME INC =  0.100000E-08
 *** RESPONSE FREQ = 0.3689E+08   PERIOD=  0.2711E-07  PTS/CYC =  27.    
 *** AUTO TIME STEP:  NEXT TIME INC = 0.13554E-08  INCREASED (FACTOR = 1.3554)

     FORCE CONVERGENCE VALUE  =  0.2411E-07  CRITERION=  0.1000E-02
     CURRENT CONVERGENCE VALUE=   0.000      CRITERION=  0.1371E-12
    EQUIL ITER   1 COMPLETED.  NEW TRIANG MATRIX.  MAX DOF INC=  0.7337E-10
     FORCE CONVERGENCE VALUE  =  0.1728E-09  CRITERION=  0.1000E-02 <<< CONVERGED
     CURRENT CONVERGENCE VALUE=   0.000      CRITERION=  0.5341E-12 <<< CONVERGED
    >>> SOLUTION CONVERGED AFTER EQUILIBRIUM ITERATION   1
 *** LOAD STEP     1   SUBSTEP     3  COMPLETED.    CUM ITER =      4
 *** TIME =  0.335539E-08     TIME INC =  0.135539E-08
 *** RESPONSE FREQ = 0.1867E+08   PERIOD=  0.5357E-07  PTS/CYC =  40.    
 *** AUTO TIME STEP:  NEXT TIME INC = 0.20331E-08  INCREASED (FACTOR = 1.5000)

     FORCE CONVERGENCE VALUE  =  0.3656E-07  CRITERION=  0.1000E-02
     CURRENT CONVERGENCE VALUE=   0.000      CRITERION=  0.4460E-12
    EQUIL ITER   1 COMPLETED.  NEW TRIANG MATRIX.  MAX DOF INC=  0.2603E-09
     FORCE CONVERGENCE VALUE  =  0.4284E-09  CRITERION=  0.1000E-02 <<< CONVERGED
     CURRENT CONVERGENCE VALUE=   0.000      CRITERION=  0.1105E-11 <<< CONVERGED
    >>> SOLUTION CONVERGED AFTER EQUILIBRIUM ITERATION   1
 *** LOAD STEP     1   SUBSTEP     4  COMPLETED.    CUM ITER =      5
 *** TIME =  0.538848E-08     TIME INC =  0.203309E-08
 *** RESPONSE FREQ = 0.1076E+08   PERIOD=  0.9290E-07  PTS/CYC =  46.    
 *** AUTO TIME STEP:  NEXT TIME INC = 0.30496E-08  INCREASED (FACTOR = 1.5000)

     FORCE CONVERGENCE VALUE  =  0.4430E-07  CRITERION=  0.1000E-02
     CURRENT CONVERGENCE VALUE=   0.000      CRITERION=  0.9070E-12
    EQUIL ITER   1 COMPLETED.  NEW TRIANG MATRIX.  MAX DOF INC=  0.7232E-09
     FORCE CONVERGENCE VALUE  =  0.2140E-08  CRITERION=  0.1000E-02 <<< CONVERGED
     CURRENT CONVERGENCE VALUE=   0.000      CRITERION=  0.1967E-11 <<< CONVERGED
    >>> SOLUTION CONVERGED AFTER EQUILIBRIUM ITERATION   1
 *** LOAD STEP     1   SUBSTEP     5  COMPLETED.    CUM ITER =      6
 *** TIME =  0.843811E-08     TIME INC =  0.304963E-08
 *** RESPONSE FREQ = 0.6560E+07   PERIOD=  0.1524E-06  PTS/CYC =  50.    
 *** AUTO TIME STEP:  NEXT TIME INC = 0.45744E-08  INCREASED (FACTOR = 1.5000)

     FORCE CONVERGENCE VALUE  =  0.4866E-07  CRITERION=  0.1000E-02
     CURRENT CONVERGENCE VALUE=   0.000      CRITERION=  0.1603E-11
    EQUIL ITER   1 COMPLETED.  NEW TRIANG MATRIX.  MAX DOF INC=  0.1723E-08
     FORCE CONVERGENCE VALUE  =  0.1223E-07  CRITERION=  0.1000E-02 <<< CONVERGED
     CURRENT CONVERGENCE VALUE=   0.000      CRITERION=  0.3276E-11 <<< CONVERGED
    >>> SOLUTION CONVERGED AFTER EQUILIBRIUM ITERATION   1
 *** LOAD STEP     1   SUBSTEP     6  COMPLETED.    CUM ITER =      7
 *** TIME =  0.130126E-07     TIME INC =  0.457445E-08
 *** RESPONSE FREQ = 0.6419E+07   PERIOD=  0.1558E-06  PTS/CYC =  34.    
 *** AUTO TIME STEP:  NEXT TIME INC = 0.50000E-08  INCREASED (FACTOR = 1.0930)

     FORCE CONVERGENCE VALUE  =  0.6631E-07  CRITERION=  0.1000E-02
     CURRENT CONVERGENCE VALUE=   0.000      CRITERION=  0.2663E-11
    EQUIL ITER   1 COMPLETED.  NEW TRIANG MATRIX.  MAX DOF INC=  0.2740E-08
     FORCE CONVERGENCE VALUE  =  0.3136E-07  CRITERION=  0.1000E-02 <<< CONVERGED
     CURRENT CONVERGENCE VALUE=   0.000      CRITERION=  0.4822E-11 <<< CONVERGED
    >>> SOLUTION CONVERGED AFTER EQUILIBRIUM ITERATION   1
 *** LOAD STEP     1   SUBSTEP     7  COMPLETED.    CUM ITER =      8
 *** TIME =  0.180126E-07     TIME INC =  0.500000E-08
 *** RESPONSE FREQ = 0.6108E+07   PERIOD=  0.1637E-06  PTS/CYC =  33.    
 *** AUTO STEP TIME:  NEXT TIME INC = 0.50000E-08  UNCHANGED

     FORCE CONVERGENCE VALUE  =  0.9146E-07  CRITERION=  0.1000E-02
     CURRENT CONVERGENCE VALUE=   0.000      CRITERION=  0.3883E-11
    EQUIL ITER   1 COMPLETED.  NEW TRIANG MATRIX.  MAX DOF INC=  0.3617E-08
     FORCE CONVERGENCE VALUE  =  0.5519E-07  CRITERION=  0.1000E-02 <<< CONVERGED
     CURRENT CONVERGENCE VALUE=   0.000      CRITERION=  0.6481E-11 <<< CONVERGED
    >>> SOLUTION CONVERGED AFTER EQUILIBRIUM ITERATION   1
 *** LOAD STEP     1   SUBSTEP     8  COMPLETED.    CUM ITER =      9
 *** TIME =  0.230126E-07     TIME INC =  0.500000E-08
 *** RESPONSE FREQ = 0.5895E+07   PERIOD=  0.1696E-06  PTS/CYC =  34.    
 *** AUTO STEP TIME:  NEXT TIME INC = 0.50000E-08  UNCHANGED

     FORCE CONVERGENCE VALUE  =  0.1160E-06  CRITERION=  0.1000E-02
     CURRENT CONVERGENCE VALUE=   0.000      CRITERION=  0.5179E-11
    EQUIL ITER   1 COMPLETED.  NEW TRIANG MATRIX.  MAX DOF INC=  0.4263E-08
     FORCE CONVERGENCE VALUE  =  0.7842E-07  CRITERION=  0.1000E-02 <<< CONVERGED
     CURRENT CONVERGENCE VALUE=   0.000      CRITERION=  0.8255E-11 <<< CONVERGED
    >>> SOLUTION CONVERGED AFTER EQUILIBRIUM ITERATION   1
 *** LOAD STEP     1   SUBSTEP     9  COMPLETED.    CUM ITER =     10
 *** TIME =  0.280126E-07     TIME INC =  0.500000E-08
 *** RESPONSE FREQ = 0.5521E+07   PERIOD=  0.1811E-06  PTS/CYC =  36.    
 *** AUTO STEP TIME:  NEXT TIME INC = 0.50000E-08  UNCHANGED

     FORCE CONVERGENCE VALUE  =  0.1389E-06  CRITERION=  0.1000E-02
     CURRENT CONVERGENCE VALUE=   0.000      CRITERION=  0.6561E-11
    EQUIL ITER   1 COMPLETED.  NEW TRIANG MATRIX.  MAX DOF INC=  0.4791E-08
     FORCE CONVERGENCE VALUE  =  0.9965E-07  CRITERION=  0.1000E-02 <<< CONVERGED
     CURRENT CONVERGENCE VALUE=   0.000      CRITERION=  0.1024E-10 <<< CONVERGED
    >>> SOLUTION CONVERGED AFTER EQUILIBRIUM ITERATION   1
 *** LOAD STEP     1   SUBSTEP    10  COMPLETED.    CUM ITER =     11
 *** TIME =  0.330126E-07     TIME INC =  0.500000E-08
 *** RESPONSE FREQ = 0.5009E+07   PERIOD=  0.1996E-06  PTS/CYC =  40.    
 *** AUTO STEP TIME:  NEXT TIME INC = 0.50000E-08  UNCHANGED

     FORCE CONVERGENCE VALUE  =  0.1601E-06  CRITERION=  0.1000E-02
     CURRENT CONVERGENCE VALUE=   0.000      CRITERION=  0.8110E-11
    EQUIL ITER   1 COMPLETED.  NEW TRIANG MATRIX.  MAX DOF INC=  0.5262E-08
     FORCE CONVERGENCE VALUE  =  0.1202E-06  CRITERION=  0.1000E-02 <<< CONVERGED
     CURRENT CONVERGENCE VALUE=   0.000      CRITERION=  0.1250E-10 <<< CONVERGED
    >>> SOLUTION CONVERGED AFTER EQUILIBRIUM ITERATION   1
 *** LOAD STEP     1   SUBSTEP    11  COMPLETED.    CUM ITER =     12
 *** TIME =  0.380126E-07     TIME INC =  0.500000E-08
 *** RESPONSE FREQ = 0.4187E+07   PERIOD=  0.2388E-06  PTS/CYC =  48.    
 *** AUTO STEP TIME:  NEXT TIME INC = 0.50000E-08  UNCHANGED

     FORCE CONVERGENCE VALUE  =  0.1787E-06  CRITERION=  0.1000E-02
     CURRENT CONVERGENCE VALUE=   0.000      CRITERION=  0.9874E-11
    EQUIL ITER   1 COMPLETED.  NEW TRIANG MATRIX.  MAX DOF INC=  0.5558E-08
     FORCE CONVERGENCE VALUE  =  0.1352E-06  CRITERION=  0.1000E-02 <<< CONVERGED
     CURRENT CONVERGENCE VALUE=   0.000      CRITERION=  0.1518E-10 <<< CONVERGED
    >>> SOLUTION CONVERGED AFTER EQUILIBRIUM ITERATION   1
 *** LOAD STEP     1   SUBSTEP    12  COMPLETED.    CUM ITER =     13
 *** TIME =  0.430126E-07     TIME INC =  0.500000E-08
 *** RESPONSE FREQ = 0.2632E+07   PERIOD=  0.3799E-06  PTS/CYC =  76.    
 *** AUTO STEP TIME:  NEXT TIME INC = 0.50000E-08  UNCHANGED

     FORCE CONVERGENCE VALUE  =  0.1923E-06  CRITERION=  0.1000E-02
     CURRENT CONVERGENCE VALUE=   0.000      CRITERION=  0.1197E-10
    EQUIL ITER   1 COMPLETED.  NEW TRIANG MATRIX.  MAX DOF INC=  0.5783E-08
     FORCE CONVERGENCE VALUE  =  0.1468E-06  CRITERION=  0.1000E-02 <<< CONVERGED
     CURRENT CONVERGENCE VALUE=   0.000      CRITERION=  0.1863E-10 <<< CONVERGED
    >>> SOLUTION CONVERGED AFTER EQUILIBRIUM ITERATION   1
 *** LOAD STEP     1   SUBSTEP    13  COMPLETED.    CUM ITER =     14
 *** TIME =  0.480126E-07     TIME INC =  0.500000E-08
 *** AUTO STEP TIME:  NEXT TIME INC = 0.50000E-08  UNCHANGED

     FORCE CONVERGENCE VALUE  =  0.2044E-06  CRITERION=  0.1000E-02
     CURRENT CONVERGENCE VALUE=   0.000      CRITERION=  0.1468E-10
    EQUIL ITER   1 COMPLETED.  NEW TRIANG MATRIX.  MAX DOF INC=  0.6069E-08
     FORCE CONVERGENCE VALUE  =  0.1613E-06  CRITERION=  0.1000E-02 <<< CONVERGED
     CURRENT CONVERGENCE VALUE=   0.000      CRITERION=  0.2353E-10 <<< CONVERGED
    >>> SOLUTION CONVERGED AFTER EQUILIBRIUM ITERATION   1
 *** LOAD STEP     1   SUBSTEP    14  COMPLETED.    CUM ITER =     15
 *** TIME =  0.530126E-07     TIME INC =  0.500000E-08
 *** AUTO STEP TIME:  NEXT TIME INC = 0.50000E-08  UNCHANGED

     FORCE CONVERGENCE VALUE  =  0.2204E-06  CRITERION=  0.1000E-02
     CURRENT CONVERGENCE VALUE=   0.000      CRITERION=  0.1855E-10
    EQUIL ITER   1 COMPLETED.  NEW TRIANG MATRIX.  MAX DOF INC=  0.6445E-08
     FORCE CONVERGENCE VALUE  =  0.1811E-06  CRITERION=  0.1000E-02 <<< CONVERGED
     CURRENT CONVERGENCE VALUE=   0.000      CRITERION=  0.3149E-10 <<< CONVERGED
    >>> SOLUTION CONVERGED AFTER EQUILIBRIUM ITERATION   1
 *** LOAD STEP     1   SUBSTEP    15  COMPLETED.    CUM ITER =     16
 *** TIME =  0.580126E-07     TIME INC =  0.500000E-08
 *** AUTO STEP TIME:  NEXT TIME INC = 0.50000E-08  UNCHANGED

     FORCE CONVERGENCE VALUE  =  0.2448E-06  CRITERION=  0.1000E-02
     CURRENT CONVERGENCE VALUE=   0.000      CRITERION=  0.2488E-10
    EQUIL ITER   1 COMPLETED.  NEW TRIANG MATRIX.  MAX DOF INC=  0.7126E-08
     FORCE CONVERGENCE VALUE  =  0.2200E-06  CRITERION=  0.1000E-02 <<< CONVERGED
     CURRENT CONVERGENCE VALUE=   0.000      CRITERION=  0.4710E-10 <<< CONVERGED
    >>> SOLUTION CONVERGED AFTER EQUILIBRIUM ITERATION   1
 *** LOAD STEP     1   SUBSTEP    16  COMPLETED.    CUM ITER =     17
 *** TIME =  0.630126E-07     TIME INC =  0.500000E-08
 *** AUTO STEP TIME:  NEXT TIME INC = 0.50000E-08  UNCHANGED

     FORCE CONVERGENCE VALUE  =  0.2944E-06  CRITERION=  0.1000E-02
     CURRENT CONVERGENCE VALUE=   0.000      CRITERION=  0.3738E-10
    EQUIL ITER   1 COMPLETED.  NEW TRIANG MATRIX.  MAX DOF INC=  0.8576E-08
     FORCE CONVERGENCE VALUE  =  0.7275E-05  CRITERION=  0.1000E-02 <<< CONVERGED
     CURRENT CONVERGENCE VALUE=   0.000      CRITERION=  0.1373E-10 <<< CONVERGED
    >>> SOLUTION CONVERGED AFTER EQUILIBRIUM ITERATION   1
 *** LOAD STEP     1   SUBSTEP    17  COMPLETED.    CUM ITER =     18
 *** TIME =  0.680126E-07     TIME INC =  0.500000E-08
 *** RESPONSE FREQ = 0.6384E+09   PERIOD=  0.1566E-08  PTS/CYC = 0.31    
 *** AUTO TIME STEP:  NEXT TIME INC = 0.25000E-08  DECREASED (FACTOR = 0.5000)

     FORCE CONVERGENCE VALUE  =  0.8055E-05  CRITERION=  0.1000E-02
     CURRENT CONVERGENCE VALUE=   0.000      CRITERION=  0.1099E-10
    EQUIL ITER   1 COMPLETED.  NEW TRIANG MATRIX.  MAX DOF INC= -0.2332E-08
     FORCE CONVERGENCE VALUE  =  0.9245E-06  CRITERION=  0.1000E-02 <<< CONVERGED
     CURRENT CONVERGENCE VALUE=   0.000      CRITERION=  0.1425E-10 <<< CONVERGED
    >>> SOLUTION CONVERGED AFTER EQUILIBRIUM ITERATION   1
 *** LOAD STEP     1   SUBSTEP    18  COMPLETED.    CUM ITER =     19
 *** TIME =  0.705126E-07     TIME INC =  0.250000E-08
 *** RESPONSE FREQ = 0.6253E+09   PERIOD=  0.1599E-08  PTS/CYC = 0.64    
 *** AUTO TIME STEP:  NEXT TIME INC = 0.12500E-08  DECREASED (FACTOR = 0.5000)

     FORCE CONVERGENCE VALUE  =  0.2468E-05  CRITERION=  0.1000E-02
     CURRENT CONVERGENCE VALUE=   0.000      CRITERION=  0.1346E-10
    EQUIL ITER   1 COMPLETED.  NEW TRIANG MATRIX.  MAX DOF INC= -0.1706E-08
     FORCE CONVERGENCE VALUE  =  0.2052E-05  CRITERION=  0.1000E-02 <<< CONVERGED
     CURRENT CONVERGENCE VALUE=   0.000      CRITERION=  0.5909E-10 <<< CONVERGED
    >>> SOLUTION CONVERGED AFTER EQUILIBRIUM ITERATION   1
 *** LOAD STEP     1   SUBSTEP    19  COMPLETED.    CUM ITER =     20
 *** TIME =  0.717626E-07     TIME INC =  0.125000E-08
 *** RESPONSE FREQ = 0.1055E+09   PERIOD=  0.9481E-08  PTS/CYC =  7.6    
 *** AUTO TIME STEP:  NEXT TIME INC = 0.62500E-09  DECREASED (FACTOR = 0.5000)

     FORCE CONVERGENCE VALUE  =  0.4646E-05  CRITERION=  0.1000E-02
     CURRENT CONVERGENCE VALUE=   0.000      CRITERION=  0.6110E-10
    EQUIL ITER   1 COMPLETED.  NEW TRIANG MATRIX.  MAX DOF INC=  0.2334E-08
     FORCE CONVERGENCE VALUE  =  0.5346E-05  CRITERION=  0.1000E-02 <<< CONVERGED
     CURRENT CONVERGENCE VALUE=   0.000      CRITERION=  0.1507E-10 <<< CONVERGED
    >>> SOLUTION CONVERGED AFTER EQUILIBRIUM ITERATION   1
 *** LOAD STEP     1   SUBSTEP    20  COMPLETED.    CUM ITER =     21
 *** TIME =  0.723876E-07     TIME INC =  0.625000E-09
 *** RESPONSE FREQ = 0.6544E+09   PERIOD=  0.1528E-08  PTS/CYC =  2.4    
 *** AUTO TIME STEP:  NEXT TIME INC = 0.31250E-09  DECREASED (FACTOR = 0.5000)

     FORCE CONVERGENCE VALUE  =  0.9024E-05  CRITERION=  0.1000E-02
     CURRENT CONVERGENCE VALUE=   0.000      CRITERION=  0.1288E-10
    EQUIL ITER   1 COMPLETED.  NEW TRIANG MATRIX.  MAX DOF INC= -0.6803E-09
     FORCE CONVERGENCE VALUE  =  0.7312E-06  CRITERION=  0.1000E-02 <<< CONVERGED
     CURRENT CONVERGENCE VALUE=   0.000      CRITERION=  0.1249E-10 <<< CONVERGED
    >>> SOLUTION CONVERGED AFTER EQUILIBRIUM ITERATION   1
 *** LOAD STEP     1   SUBSTEP    21  COMPLETED.    CUM ITER =     22
 *** TIME =  0.727001E-07     TIME INC =  0.312500E-09
 *** RESPONSE FREQ = 0.6442E+09   PERIOD=  0.1552E-08  PTS/CYC =  5.0    
 *** AUTO TIME STEP:  NEXT TIME INC = 0.15625E-09  DECREASED (FACTOR = 0.5000)

     FORCE CONVERGENCE VALUE  =  0.1411E-04  CRITERION=  0.1000E-02
     CURRENT CONVERGENCE VALUE=   0.000      CRITERION=  0.9773E-11
    EQUIL ITER   1 COMPLETED.  NEW TRIANG MATRIX.  MAX DOF INC= -0.7764E-09
     FORCE CONVERGENCE VALUE  =  0.1684E-06  CRITERION=  0.1000E-02 <<< CONVERGED
     CURRENT CONVERGENCE VALUE=   0.000      CRITERION=  0.1136E-10 <<< CONVERGED
    >>> SOLUTION CONVERGED AFTER EQUILIBRIUM ITERATION   1
 *** LOAD STEP     1   SUBSTEP    22  COMPLETED.    CUM ITER =     23
 *** TIME =  0.728563E-07     TIME INC =  0.156250E-09
 *** RESPONSE FREQ = 0.6569E+09   PERIOD=  0.1522E-08  PTS/CYC =  9.7    
 *** AUTO TIME STEP:  NEXT TIME INC = 0.10000E-09  DECREASED (FACTOR = 0.6400)

     FORCE CONVERGENCE VALUE  =  0.3577E-04  CRITERION=  0.1000E-02
     CURRENT CONVERGENCE VALUE=   0.000      CRITERION=  0.9135E-11
    EQUIL ITER   1 COMPLETED.  NEW TRIANG MATRIX.  MAX DOF INC= -0.8014E-09
     FORCE CONVERGENCE VALUE  =  0.1877E-06  CRITERION=  0.1000E-02 <<< CONVERGED
     CURRENT CONVERGENCE VALUE=   0.000      CRITERION=  0.1401E-10 <<< CONVERGED
    >>> SOLUTION CONVERGED AFTER EQUILIBRIUM ITERATION   1
 *** LOAD STEP     1   SUBSTEP    23  COMPLETED.    CUM ITER =     24
 *** TIME =  0.729563E-07     TIME INC =  0.100000E-09
 *** RESPONSE FREQ = 0.6574E+09   PERIOD=  0.1521E-08  PTS/CYC =  15.    
 *** AUTO STEP TIME:  NEXT TIME INC = 0.10000E-09  UNCHANGED

     FORCE CONVERGENCE VALUE  =  0.4067E-04  CRITERION=  0.1000E-02
     CURRENT CONVERGENCE VALUE=   0.000      CRITERION=  0.1128E-10
    EQUIL ITER   1 COMPLETED.  NEW TRIANG MATRIX.  MAX DOF INC= -0.8740E-09
     FORCE CONVERGENCE VALUE  =  0.4285E-06  CRITERION=  0.1000E-02 <<< CONVERGED
     CURRENT CONVERGENCE VALUE=   0.000      CRITERION=  0.2880E-09 <<< CONVERGED
    >>> SOLUTION CONVERGED AFTER EQUILIBRIUM ITERATION   1
 *** LOAD STEP     1   SUBSTEP    24  COMPLETED.    CUM ITER =     25
 *** TIME =  0.730563E-07     TIME INC =  0.100000E-09
 *** RESPONSE FREQ = 0.1355E+09   PERIOD=  0.7381E-08  PTS/CYC =  74.    
 *** AUTO TIME STEP:  NEXT TIME INC = 0.15000E-09  INCREASED (FACTOR = 1.5000)

     FORCE CONVERGENCE VALUE  =  0.2593E-04  CRITERION=  0.1000E-02
     CURRENT CONVERGENCE VALUE=   0.000      CRITERION=  0.2270E-09
    EQUIL ITER   1 COMPLETED.  NEW TRIANG MATRIX.  MAX DOF INC= -0.1273E-08
     FORCE CONVERGENCE VALUE  =  0.5262E-06  CRITERION=  0.1000E-02 <<< CONVERGED
     CURRENT CONVERGENCE VALUE=   0.000      CRITERION=  0.2809E-09 <<< CONVERGED
    >>> SOLUTION CONVERGED AFTER EQUILIBRIUM ITERATION   1
 *** LOAD STEP     1   SUBSTEP    25  COMPLETED.    CUM ITER =     26
 *** TIME =  0.732063E-07     TIME INC =  0.150000E-09
 *** RESPONSE FREQ = 0.7378E+08   PERIOD=  0.1355E-07  PTS/CYC =  90.    
 *** AUTO TIME STEP:  NEXT TIME INC = 0.22500E-09  INCREASED (FACTOR = 1.5000)

     FORCE CONVERGENCE VALUE  =  0.1699E-04  CRITERION=  0.1000E-02
     CURRENT CONVERGENCE VALUE=   0.000      CRITERION=  0.2205E-09
    EQUIL ITER   1 COMPLETED.  NEW TRIANG MATRIX.  MAX DOF INC= -0.1789E-08
     FORCE CONVERGENCE VALUE  =  0.2378E-06  CRITERION=  0.1000E-02 <<< CONVERGED
     CURRENT CONVERGENCE VALUE=   0.000      CRITERION=  0.2504E-09 <<< CONVERGED
    >>> SOLUTION CONVERGED AFTER EQUILIBRIUM ITERATION   1
 *** LOAD STEP     1   SUBSTEP    26  COMPLETED.    CUM ITER =     27
 *** TIME =  0.734313E-07     TIME INC =  0.225000E-09
 *** RESPONSE FREQ = 0.6565E+08   PERIOD=  0.1523E-07  PTS/CYC =  68.    
 *** AUTO TIME STEP:  NEXT TIME INC = 0.33750E-09  INCREASED (FACTOR = 1.5000)

     FORCE CONVERGENCE VALUE  =  0.1129E-04  CRITERION=  0.1000E-02
     CURRENT CONVERGENCE VALUE=   0.000      CRITERION=  0.1963E-09
    EQUIL ITER   1 COMPLETED.  NEW TRIANG MATRIX.  MAX DOF INC= -0.2613E-08
     FORCE CONVERGENCE VALUE  =  0.3094E-06  CRITERION=  0.1000E-02 <<< CONVERGED
     CURRENT CONVERGENCE VALUE=   0.000      CRITERION=  0.2268E-09 <<< CONVERGED
    >>> SOLUTION CONVERGED AFTER EQUILIBRIUM ITERATION   1
 *** LOAD STEP     1   SUBSTEP    27  COMPLETED.    CUM ITER =     28
 *** TIME =  0.737688E-07     TIME INC =  0.337500E-09
 *** RESPONSE FREQ = 0.5468E+08   PERIOD=  0.1829E-07  PTS/CYC =  54.    
 *** AUTO TIME STEP:  NEXT TIME INC = 0.50625E-09  INCREASED (FACTOR = 1.5000)

     FORCE CONVERGENCE VALUE  =  0.7416E-05  CRITERION=  0.1000E-02
     CURRENT CONVERGENCE VALUE=   0.000      CRITERION=  0.1778E-09
    EQUIL ITER   1 COMPLETED.  NEW TRIANG MATRIX.  MAX DOF INC= -0.4103E-08
     FORCE CONVERGENCE VALUE  =  0.1798E-06  CRITERION=  0.1000E-02 <<< CONVERGED
     CURRENT CONVERGENCE VALUE=   0.000      CRITERION=  0.1882E-09 <<< CONVERGED
    >>> SOLUTION CONVERGED AFTER EQUILIBRIUM ITERATION   1
 *** LOAD STEP     1   SUBSTEP    28  COMPLETED.    CUM ITER =     29
 *** TIME =  0.742751E-07     TIME INC =  0.506250E-09
 *** RESPONSE FREQ = 0.4924E+08   PERIOD=  0.2031E-07  PTS/CYC =  40.    
 *** AUTO TIME STEP:  NEXT TIME INC = 0.75937E-09  INCREASED (FACTOR = 1.5000)

     FORCE CONVERGENCE VALUE  =  0.4838E-05  CRITERION=  0.1000E-02
     CURRENT CONVERGENCE VALUE=   0.000      CRITERION=  0.1478E-09
    EQUIL ITER   1 COMPLETED.  NEW TRIANG MATRIX.  MAX DOF INC= -0.6287E-08
     FORCE CONVERGENCE VALUE  =  0.4758E-06  CRITERION=  0.1000E-02 <<< CONVERGED
     CURRENT CONVERGENCE VALUE=   0.000      CRITERION=  0.1552E-09 <<< CONVERGED
    >>> SOLUTION CONVERGED AFTER EQUILIBRIUM ITERATION   1
 *** LOAD STEP     1   SUBSTEP    29  COMPLETED.    CUM ITER =     30
 *** TIME =  0.750344E-07     TIME INC =  0.759375E-09
 *** RESPONSE FREQ = 0.3419E+08   PERIOD=  0.2925E-07  PTS/CYC =  39.    
 *** AUTO TIME STEP:  NEXT TIME INC = 0.11391E-08  INCREASED (FACTOR = 1.5000)

     FORCE CONVERGENCE VALUE  =  0.3373E-05  CRITERION=  0.1000E-02
     CURRENT CONVERGENCE VALUE=   0.000      CRITERION=  0.1215E-09
    EQUIL ITER   1 COMPLETED.  NEW TRIANG MATRIX.  MAX DOF INC= -0.8331E-08
     FORCE CONVERGENCE VALUE  =  0.7202E-06  CRITERION=  0.1000E-02 <<< CONVERGED
     CURRENT CONVERGENCE VALUE=   0.000      CRITERION=  0.1266E-09 <<< CONVERGED
    >>> SOLUTION CONVERGED AFTER EQUILIBRIUM ITERATION   1
 *** LOAD STEP     1   SUBSTEP    30  COMPLETED.    CUM ITER =     31
 *** TIME =  0.761735E-07     TIME INC =  0.113906E-08
 *** RESPONSE FREQ = 0.3040E+08   PERIOD=  0.3290E-07  PTS/CYC =  29.    
 *** AUTO TIME STEP:  NEXT TIME INC = 0.16449E-08  INCREASED (FACTOR = 1.4441)

     FORCE CONVERGENCE VALUE  =  0.2787E-05  CRITERION=  0.1000E-02
     CURRENT CONVERGENCE VALUE=   0.000      CRITERION=  0.1003E-09
    EQUIL ITER   1 COMPLETED.  NEW TRIANG MATRIX.  MAX DOF INC= -0.1490E-07
     FORCE CONVERGENCE VALUE  =  0.9622E-06  CRITERION=  0.1000E-02 <<< CONVERGED
     CURRENT CONVERGENCE VALUE=   0.000      CRITERION=  0.9539E-10 <<< CONVERGED
    >>> SOLUTION CONVERGED AFTER EQUILIBRIUM ITERATION   1
 *** LOAD STEP     1   SUBSTEP    31  COMPLETED.    CUM ITER =     32
 *** TIME =  0.778184E-07     TIME INC =  0.164492E-08
 *** RESPONSE FREQ = 0.2239E+08   PERIOD=  0.4466E-07  PTS/CYC =  27.    
 *** AUTO TIME STEP:  NEXT TIME INC = 0.22331E-08  INCREASED (FACTOR = 1.3576)

     FORCE CONVERGENCE VALUE  =  0.2231E-05  CRITERION=  0.1000E-02
     CURRENT CONVERGENCE VALUE=   0.000      CRITERION=  0.7516E-10
    EQUIL ITER   1 COMPLETED.  NEW TRIANG MATRIX.  MAX DOF INC= -0.2018E-07
     FORCE CONVERGENCE VALUE  =  0.2268E-05  CRITERION=  0.1000E-02 <<< CONVERGED
     CURRENT CONVERGENCE VALUE=   0.000      CRITERION=  0.6260E-10 <<< CONVERGED
    >>> SOLUTION CONVERGED AFTER EQUILIBRIUM ITERATION   1
 *** LOAD STEP     1   SUBSTEP    32  COMPLETED.    CUM ITER =     33
 *** TIME =  0.800515E-07     TIME INC =  0.223308E-08
 *** RESPONSE FREQ = 0.2023E+08   PERIOD=  0.4944E-07  PTS/CYC =  22.    
 *** AUTO TIME STEP:  NEXT TIME INC = 0.24718E-08  INCREASED (FACTOR = 1.1069)

     FORCE CONVERGENCE VALUE  =  0.2898E-05  CRITERION=  0.1000E-02
     CURRENT CONVERGENCE VALUE=   0.000      CRITERION=  0.4915E-10
    EQUIL ITER   1 COMPLETED.  NEW TRIANG MATRIX.  MAX DOF INC= -0.1682E-07
     FORCE CONVERGENCE VALUE  =  0.2077E-05  CRITERION=  0.1000E-02 <<< CONVERGED
     CURRENT CONVERGENCE VALUE=   0.000      CRITERION=  0.4312E-10 <<< CONVERGED
    >>> SOLUTION CONVERGED AFTER EQUILIBRIUM ITERATION   1
 *** LOAD STEP     1   SUBSTEP    33  COMPLETED.    CUM ITER =     34
 *** TIME =  0.825233E-07     TIME INC =  0.247179E-08
 *** RESPONSE FREQ = 0.1675E+08   PERIOD=  0.5970E-07  PTS/CYC =  24.    
 *** AUTO TIME STEP:  NEXT TIME INC = 0.29852E-08  INCREASED (FACTOR = 1.2077)

     FORCE CONVERGENCE VALUE  =  0.2481E-05  CRITERION=  0.1000E-02
     CURRENT CONVERGENCE VALUE=   0.000      CRITERION=  0.3369E-10
    EQUIL ITER   1 COMPLETED.  NEW TRIANG MATRIX.  MAX DOF INC= -0.2029E-07
     FORCE CONVERGENCE VALUE  =  0.1776E-05  CRITERION=  0.1000E-02 <<< CONVERGED
     CURRENT CONVERGENCE VALUE=   0.000      CRITERION=  0.3143E-10 <<< CONVERGED
    >>> SOLUTION CONVERGED AFTER EQUILIBRIUM ITERATION   1
 *** LOAD STEP     1   SUBSTEP    34  COMPLETED.    CUM ITER =     35
 *** TIME =  0.855084E-07     TIME INC =  0.298516E-08
 *** RESPONSE FREQ = 0.1476E+08   PERIOD=  0.6776E-07  PTS/CYC =  23.    
 *** AUTO TIME STEP:  NEXT TIME INC = 0.33878E-08  INCREASED (FACTOR = 1.1349)

     FORCE CONVERGENCE VALUE  =  0.2189E-05  CRITERION=  0.1000E-02
     CURRENT CONVERGENCE VALUE=   0.000      CRITERION=  0.2483E-10
    EQUIL ITER   1 COMPLETED.  NEW TRIANG MATRIX.  MAX DOF INC= -0.2171E-07
     FORCE CONVERGENCE VALUE  =  0.3199E-05  CRITERION=  0.1000E-02 <<< CONVERGED
     CURRENT CONVERGENCE VALUE=   0.000      CRITERION=  0.2132E-10 <<< CONVERGED
    >>> SOLUTION CONVERGED AFTER EQUILIBRIUM ITERATION   1
 *** LOAD STEP     1   SUBSTEP    35  COMPLETED.    CUM ITER =     36
 *** TIME =  0.888962E-07     TIME INC =  0.338778E-08
 *** RESPONSE FREQ = 0.1365E+08   PERIOD=  0.7327E-07  PTS/CYC =  22.    
 *** AUTO TIME STEP:  NEXT TIME INC = 0.36635E-08  INCREASED (FACTOR = 1.0814)

     FORCE CONVERGENCE VALUE  =  0.3499E-05  CRITERION=  0.1000E-02
     CURRENT CONVERGENCE VALUE=   0.000      CRITERION=  0.1667E-10
    EQUIL ITER   1 COMPLETED.  NEW TRIANG MATRIX.  MAX DOF INC= -0.2343E-07
     FORCE CONVERGENCE VALUE  =  0.2859E-05  CRITERION=  0.1000E-02 <<< CONVERGED
     CURRENT CONVERGENCE VALUE=   0.000      CRITERION=  0.1643E-10 <<< CONVERGED
    >>> SOLUTION CONVERGED AFTER EQUILIBRIUM ITERATION   1
 *** LOAD STEP     1   SUBSTEP    36  COMPLETED.    CUM ITER =     37
 *** TIME =  0.925597E-07     TIME INC =  0.366347E-08
 *** RESPONSE FREQ = 0.1177E+08   PERIOD=  0.8499E-07  PTS/CYC =  23.    
 *** AUTO TIME STEP:  NEXT TIME INC = 0.42497E-08  INCREASED (FACTOR = 1.1600)

     FORCE CONVERGENCE VALUE  =  0.3030E-05  CRITERION=  0.1000E-02
     CURRENT CONVERGENCE VALUE=   0.000      CRITERION=  0.1301E-10
    EQUIL ITER   1 COMPLETED.  NEW TRIANG MATRIX.  MAX DOF INC= -0.2135E-07
     FORCE CONVERGENCE VALUE  =  0.2700E-05  CRITERION=  0.1000E-02 <<< CONVERGED
     CURRENT CONVERGENCE VALUE=   0.000      CRITERION=  0.1008E-10 <<< CONVERGED
    >>> SOLUTION CONVERGED AFTER EQUILIBRIUM ITERATION   1
 *** LOAD STEP     1   SUBSTEP    37  COMPLETED.    CUM ITER =     38
 *** TIME =  0.968094E-07     TIME INC =  0.424969E-08
 *** RESPONSE FREQ = 0.1278E+08   PERIOD=  0.7824E-07  PTS/CYC =  18.    
 *** AUTO TIME STEP:  NEXT TIME INC = 0.39118E-08  DECREASED (FACTOR = 0.9205)

     FORCE CONVERGENCE VALUE  =  0.2808E-05  CRITERION=  0.1000E-02
     CURRENT CONVERGENCE VALUE=   0.000      CRITERION=  0.7732E-11
    EQUIL ITER   1 COMPLETED.  NEW TRIANG MATRIX.  MAX DOF INC= -0.1686E-07
     FORCE CONVERGENCE VALUE  =  0.1837E-05  CRITERION=  0.1000E-02 <<< CONVERGED
     CURRENT CONVERGENCE VALUE=   0.000      CRITERION=  0.7007E-11 <<< CONVERGED
    >>> SOLUTION CONVERGED AFTER EQUILIBRIUM ITERATION   1
 *** LOAD STEP     1   SUBSTEP    38  COMPLETED.    CUM ITER =     39
 *** TIME =  0.100721E-06     TIME INC =  0.391183E-08
 *** RESPONSE FREQ = 0.1372E+08   PERIOD=  0.7289E-07  PTS/CYC =  19.    
 *** AUTO TIME STEP:  NEXT TIME INC = 0.36444E-08  DECREASED (FACTOR = 0.9316)

     FORCE CONVERGENCE VALUE  =  0.2008E-05  CRITERION=  0.1000E-02
     CURRENT CONVERGENCE VALUE=   0.000      CRITERION=  0.5447E-11
    EQUIL ITER   1 COMPLETED.  NEW TRIANG MATRIX.  MAX DOF INC= -0.1222E-07
     FORCE CONVERGENCE VALUE  =  0.9202E-06  CRITERION=  0.1000E-02 <<< CONVERGED
     CURRENT CONVERGENCE VALUE=   0.000      CRITERION=  0.4799E-11 <<< CONVERGED
    >>> SOLUTION CONVERGED AFTER EQUILIBRIUM ITERATION   1
 *** LOAD STEP     1   SUBSTEP    39  COMPLETED.    CUM ITER =     40
 *** TIME =  0.104366E-06     TIME INC =  0.364441E-08
 *** RESPONSE FREQ = 0.1244E+08   PERIOD=  0.8038E-07  PTS/CYC =  22.    
 *** AUTO STEP TIME:  NEXT TIME INC = 0.36444E-08  UNCHANGED

     FORCE CONVERGENCE VALUE  =  0.9259E-06  CRITERION=  0.1000E-02
     CURRENT CONVERGENCE VALUE=   0.000      CRITERION=  0.3755E-11
    EQUIL ITER   1 COMPLETED.  NEW TRIANG MATRIX.  MAX DOF INC= -0.9335E-08
     FORCE CONVERGENCE VALUE  =  0.6028E-06  CRITERION=  0.1000E-02 <<< CONVERGED
     CURRENT CONVERGENCE VALUE=   0.000      CRITERION=  0.3486E-11 <<< CONVERGED
    >>> SOLUTION CONVERGED AFTER EQUILIBRIUM ITERATION   1
 *** LOAD STEP     1   SUBSTEP    40  COMPLETED.    CUM ITER =     41
 *** TIME =  0.108010E-06     TIME INC =  0.364441E-08
 *** RESPONSE FREQ = 0.1851E+08   PERIOD=  0.5401E-07  PTS/CYC =  15.    
 *** AUTO TIME STEP:  NEXT TIME INC = 0.27006E-08  DECREASED (FACTOR = 0.7410)

     FORCE CONVERGENCE VALUE  =  0.7386E-06  CRITERION=  0.1000E-02
     CURRENT CONVERGENCE VALUE=   0.000      CRITERION=  0.2691E-11
    EQUIL ITER   1 COMPLETED.  NEW TRIANG MATRIX.  MAX DOF INC= -0.6119E-08
     FORCE CONVERGENCE VALUE  =  0.3937E-06  CRITERION=  0.1000E-02 <<< CONVERGED
     CURRENT CONVERGENCE VALUE=   0.000      CRITERION=  0.1530E-11 <<< CONVERGED
    >>> SOLUTION CONVERGED AFTER EQUILIBRIUM ITERATION   1
 *** LOAD STEP     1   SUBSTEP    41  COMPLETED.    CUM ITER =     42
 *** TIME =  0.110711E-06     TIME INC =  0.270056E-08
 *** RESPONSE FREQ = 0.2955E+08   PERIOD=  0.3384E-07  PTS/CYC =  13.    
 *** AUTO TIME STEP:  NEXT TIME INC = 0.16922E-08  DECREASED (FACTOR = 0.6266)

     FORCE CONVERGENCE VALUE  =  0.4932E-06  CRITERION=  0.1000E-02
     CURRENT CONVERGENCE VALUE=   0.000      CRITERION=  0.1087E-11
    EQUIL ITER   1 COMPLETED.  NEW TRIANG MATRIX.  MAX DOF INC= -0.1867E-08
     FORCE CONVERGENCE VALUE  =  0.9552E-07  CRITERION=  0.1000E-02 <<< CONVERGED
     CURRENT CONVERGENCE VALUE=   0.000      CRITERION=  0.1059E-11 <<< CONVERGED
    >>> SOLUTION CONVERGED AFTER EQUILIBRIUM ITERATION   1
 *** LOAD STEP     1   SUBSTEP    42  COMPLETED.    CUM ITER =     43
 *** TIME =  0.112403E-06     TIME INC =  0.169219E-08
 *** RESPONSE FREQ = 0.4940E+08   PERIOD=  0.2024E-07  PTS/CYC =  12.    
 *** AUTO TIME STEP:  NEXT TIME INC = 0.10121E-08  DECREASED (FACTOR = 0.5981)

     FORCE CONVERGENCE VALUE  =  0.3587E-06  CRITERION=  0.1000E-02
     CURRENT CONVERGENCE VALUE=   0.000      CRITERION=  0.8719E-12
    EQUIL ITER   1 COMPLETED.  NEW TRIANG MATRIX.  MAX DOF INC=  0.1305E-08
     FORCE CONVERGENCE VALUE  =  0.3575E-07  CRITERION=  0.1000E-02 <<< CONVERGED
     CURRENT CONVERGENCE VALUE=   0.000      CRITERION=  0.1337E-11 <<< CONVERGED
    >>> SOLUTION CONVERGED AFTER EQUILIBRIUM ITERATION   1
 *** LOAD STEP     1   SUBSTEP    43  COMPLETED.    CUM ITER =     44
 *** TIME =  0.113415E-06     TIME INC =  0.101210E-08
 *** RESPONSE FREQ = 0.8296E+08   PERIOD=  0.1205E-07  PTS/CYC =  12.    
 *** AUTO TIME STEP:  NEXT TIME INC = 0.60270E-09  DECREASED (FACTOR = 0.5955)

     FORCE CONVERGENCE VALUE  =  0.6460E-06  CRITERION=  0.1000E-02
     CURRENT CONVERGENCE VALUE=   0.000      CRITERION=  0.1089E-11
    EQUIL ITER   1 COMPLETED.  NEW TRIANG MATRIX.  MAX DOF INC=  0.8603E-09
     FORCE CONVERGENCE VALUE  =  0.1548E-07  CRITERION=  0.1000E-02 <<< CONVERGED
     CURRENT CONVERGENCE VALUE=   0.000      CRITERION=  0.1527E-11 <<< CONVERGED
    >>> SOLUTION CONVERGED AFTER EQUILIBRIUM ITERATION   1
 *** LOAD STEP     1   SUBSTEP    44  COMPLETED.    CUM ITER =     45
 *** TIME =  0.114018E-06     TIME INC =  0.602701E-09
 *** RESPONSE FREQ = 0.9508E+08   PERIOD=  0.1052E-07  PTS/CYC =  17.    
 *** AUTO TIME STEP:  NEXT TIME INC = 0.52590E-09  DECREASED (FACTOR = 0.8726)

     FORCE CONVERGENCE VALUE  =  0.8199E-06  CRITERION=  0.1000E-02
     CURRENT CONVERGENCE VALUE=   0.000      CRITERION=  0.1211E-11
    EQUIL ITER   1 COMPLETED.  NEW TRIANG MATRIX.  MAX DOF INC=  0.7774E-09
     FORCE CONVERGENCE VALUE  =  0.1461E-07  CRITERION=  0.1000E-02 <<< CONVERGED
     CURRENT CONVERGENCE VALUE=   0.000      CRITERION=  0.1570E-11 <<< CONVERGED
    >>> SOLUTION CONVERGED AFTER EQUILIBRIUM ITERATION   1
 *** LOAD STEP     1   SUBSTEP    45  COMPLETED.    CUM ITER =     46
 *** TIME =  0.114543E-06     TIME INC =  0.525897E-09
 *** RESPONSE FREQ = 0.9185E+08   PERIOD=  0.1089E-07  PTS/CYC =  21.    
 *** AUTO STEP TIME:  NEXT TIME INC = 0.52590E-09  UNCHANGED

     FORCE CONVERGENCE VALUE  =  0.8869E-06  CRITERION=  0.1000E-02
     CURRENT CONVERGENCE VALUE=   0.000      CRITERION=  0.1237E-11
    EQUIL ITER   1 COMPLETED.  NEW TRIANG MATRIX.  MAX DOF INC=  0.8676E-09
     FORCE CONVERGENCE VALUE  =  0.1540E-07  CRITERION=  0.1000E-02 <<< CONVERGED
     CURRENT CONVERGENCE VALUE=   0.000      CRITERION=  0.1481E-11 <<< CONVERGED
    >>> SOLUTION CONVERGED AFTER EQUILIBRIUM ITERATION   1
 *** LOAD STEP     1   SUBSTEP    46  COMPLETED.    CUM ITER =     47
 *** TIME =  0.115069E-06     TIME INC =  0.525897E-09
 *** RESPONSE FREQ = 0.8248E+08   PERIOD=  0.1212E-07  PTS/CYC =  23.    
 *** AUTO TIME STEP:  NEXT TIME INC = 0.60624E-09  INCREASED (FACTOR = 1.1528)

     FORCE CONVERGENCE VALUE  =  0.8190E-06  CRITERION=  0.1000E-02
     CURRENT CONVERGENCE VALUE=   0.000      CRITERION=  0.1158E-11
    EQUIL ITER   1 COMPLETED.  NEW TRIANG MATRIX.  MAX DOF INC=  0.1075E-08
     FORCE CONVERGENCE VALUE  =  0.1850E-07  CRITERION=  0.1000E-02 <<< CONVERGED
     CURRENT CONVERGENCE VALUE=   0.000      CRITERION=  0.1408E-11 <<< CONVERGED
    >>> SOLUTION CONVERGED AFTER EQUILIBRIUM ITERATION   1
 *** LOAD STEP     1   SUBSTEP    47  COMPLETED.    CUM ITER =     48
 *** TIME =  0.115676E-06     TIME INC =  0.606244E-09
 *** RESPONSE FREQ = 0.6058E+08   PERIOD=  0.1651E-07  PTS/CYC =  27.    
 *** AUTO TIME STEP:  NEXT TIME INC = 0.82541E-09  INCREASED (FACTOR = 1.3615)

     FORCE CONVERGENCE VALUE  =  0.6434E-06  CRITERION=  0.1000E-02
     CURRENT CONVERGENCE VALUE=   0.000      CRITERION=  0.1105E-11
    EQUIL ITER   1 COMPLETED.  NEW TRIANG MATRIX.  MAX DOF INC=  0.1468E-08
     FORCE CONVERGENCE VALUE  =  0.2134E-07  CRITERION=  0.1000E-02 <<< CONVERGED
     CURRENT CONVERGENCE VALUE=   0.000      CRITERION=  0.1398E-11 <<< CONVERGED
    >>> SOLUTION CONVERGED AFTER EQUILIBRIUM ITERATION   1
 *** LOAD STEP     1   SUBSTEP    48  COMPLETED.    CUM ITER =     49
 *** TIME =  0.116501E-06     TIME INC =  0.825408E-09
 *** RESPONSE FREQ = 0.4328E+08   PERIOD=  0.2311E-07  PTS/CYC =  28.    
 *** AUTO TIME STEP:  NEXT TIME INC = 0.11553E-08  INCREASED (FACTOR = 1.3996)

     FORCE CONVERGENCE VALUE  =  0.5343E-06  CRITERION=  0.1000E-02
     CURRENT CONVERGENCE VALUE=   0.000      CRITERION=  0.1108E-11
    EQUIL ITER   1 COMPLETED.  NEW TRIANG MATRIX.  MAX DOF INC=  0.1672E-08
     FORCE CONVERGENCE VALUE  =  0.1835E-07  CRITERION=  0.1000E-02 <<< CONVERGED
     CURRENT CONVERGENCE VALUE=   0.000      CRITERION=  0.1781E-11 <<< CONVERGED
    >>> SOLUTION CONVERGED AFTER EQUILIBRIUM ITERATION   1
 *** LOAD STEP     1   SUBSTEP    49  COMPLETED.    CUM ITER =     50
 *** TIME =  0.117656E-06     TIME INC =  0.115528E-08
 *** RESPONSE FREQ = 0.1712E+08   PERIOD=  0.5842E-07  PTS/CYC =  51.    
 *** AUTO TIME STEP:  NEXT TIME INC = 0.17329E-08  INCREASED (FACTOR = 1.5000)

     FORCE CONVERGENCE VALUE  =  0.4929E-06  CRITERION=  0.1000E-02
     CURRENT CONVERGENCE VALUE=   0.000      CRITERION=  0.1428E-11
    EQUIL ITER   1 COMPLETED.  NEW TRIANG MATRIX.  MAX DOF INC=  0.3055E-08
     FORCE CONVERGENCE VALUE  =  0.8262E-07  CRITERION=  0.1000E-02 <<< CONVERGED
     CURRENT CONVERGENCE VALUE=   0.000      CRITERION=  0.2529E-11 <<< CONVERGED
    >>> SOLUTION CONVERGED AFTER EQUILIBRIUM ITERATION   1
 *** LOAD STEP     1   SUBSTEP    50  COMPLETED.    CUM ITER =     51
 *** TIME =  0.119389E-06     TIME INC =  0.173291E-08
 *** RESPONSE FREQ = 0.2300E+08   PERIOD=  0.4348E-07  PTS/CYC =  25.    
 *** AUTO TIME STEP:  NEXT TIME INC = 0.21742E-08  INCREASED (FACTOR = 1.2547)

     FORCE CONVERGENCE VALUE  =  0.5366E-06  CRITERION=  0.1000E-02
     CURRENT CONVERGENCE VALUE=   0.000      CRITERION=  0.2046E-11
    EQUIL ITER   1 COMPLETED.  NEW TRIANG MATRIX.  MAX DOF INC=  0.5279E-08
     FORCE CONVERGENCE VALUE  =  0.2111E-06  CRITERION=  0.1000E-02 <<< CONVERGED
     CURRENT CONVERGENCE VALUE=   0.000      CRITERION=  0.3583E-11 <<< CONVERGED
    >>> SOLUTION CONVERGED AFTER EQUILIBRIUM ITERATION   1
 *** LOAD STEP     1   SUBSTEP    51  COMPLETED.    CUM ITER =     52
 *** TIME =  0.121563E-06     TIME INC =  0.217424E-08
 *** RESPONSE FREQ = 0.2052E+08   PERIOD=  0.4873E-07  PTS/CYC =  22.    
 *** AUTO TIME STEP:  NEXT TIME INC = 0.24363E-08  INCREASED (FACTOR = 1.1205)

     FORCE CONVERGENCE VALUE  =  0.6676E-06  CRITERION=  0.1000E-02
     CURRENT CONVERGENCE VALUE=   0.000      CRITERION=  0.2877E-11
    EQUIL ITER   1 COMPLETED.  NEW TRIANG MATRIX.  MAX DOF INC=  0.6736E-08
     FORCE CONVERGENCE VALUE  =  0.2161E-06  CRITERION=  0.1000E-02 <<< CONVERGED
     CURRENT CONVERGENCE VALUE=   0.000      CRITERION=  0.5104E-11 <<< CONVERGED
    >>> SOLUTION CONVERGED AFTER EQUILIBRIUM ITERATION   1
 *** LOAD STEP     1   SUBSTEP    52  COMPLETED.    CUM ITER =     53
 *** TIME =  0.124000E-06     TIME INC =  0.243627E-08
 *** RESPONSE FREQ = 0.9089E+07   PERIOD=  0.1100E-06  PTS/CYC =  45.    
 *** AUTO TIME STEP:  NEXT TIME INC = 0.36544E-08  INCREASED (FACTOR = 1.5000)

     FORCE CONVERGENCE VALUE  =  0.6346E-06  CRITERION=  0.1000E-02
     CURRENT CONVERGENCE VALUE=   0.000      CRITERION=  0.4114E-11
    EQUIL ITER   1 COMPLETED.  NEW TRIANG MATRIX.  MAX DOF INC=  0.1475E-07
     FORCE CONVERGENCE VALUE  =  0.8581E-06  CRITERION=  0.1000E-02 <<< CONVERGED
     CURRENT CONVERGENCE VALUE=   0.000      CRITERION=  0.7783E-11 <<< CONVERGED
    >>> SOLUTION CONVERGED AFTER EQUILIBRIUM ITERATION   1
 *** LOAD STEP     1   SUBSTEP    53  COMPLETED.    CUM ITER =     54
 *** TIME =  0.127654E-06     TIME INC =  0.365441E-08
 *** RESPONSE FREQ = 0.1072E+08   PERIOD=  0.9325E-07  PTS/CYC =  26.    
 *** AUTO TIME STEP:  NEXT TIME INC = 0.46627E-08  INCREASED (FACTOR = 1.2759)

     FORCE CONVERGENCE VALUE  =  0.1086E-05  CRITERION=  0.1000E-02
     CURRENT CONVERGENCE VALUE=   0.000      CRITERION=  0.6254E-11
    EQUIL ITER   1 COMPLETED.  NEW TRIANG MATRIX.  MAX DOF INC=  0.2068E-07
     FORCE CONVERGENCE VALUE  =  0.1775E-05  CRITERION=  0.1000E-02 <<< CONVERGED
     CURRENT CONVERGENCE VALUE=   0.000      CRITERION=  0.1140E-10 <<< CONVERGED
    >>> SOLUTION CONVERGED AFTER EQUILIBRIUM ITERATION   1
 *** LOAD STEP     1   SUBSTEP    54  COMPLETED.    CUM ITER =     55
 *** TIME =  0.132317E-06     TIME INC =  0.466268E-08
 *** RESPONSE FREQ = 0.8185E+07   PERIOD=  0.1222E-06  PTS/CYC =  26.    
 *** AUTO TIME STEP:  NEXT TIME INC = 0.50000E-08  INCREASED (FACTOR = 1.0723)

     FORCE CONVERGENCE VALUE  =  0.1966E-05  CRITERION=  0.1000E-02
     CURRENT CONVERGENCE VALUE=   0.000      CRITERION=  0.9092E-11
    EQUIL ITER   1 COMPLETED.  NEW TRIANG MATRIX.  MAX DOF INC=  0.2646E-07
     FORCE CONVERGENCE VALUE  =  0.2894E-05  CRITERION=  0.1000E-02 <<< CONVERGED
     CURRENT CONVERGENCE VALUE=   0.000      CRITERION=  0.1825E-10 <<< CONVERGED
    >>> SOLUTION CONVERGED AFTER EQUILIBRIUM ITERATION   1
 *** LOAD STEP     1   SUBSTEP    55  COMPLETED.    CUM ITER =     56
 *** TIME =  0.137317E-06     TIME INC =  0.500000E-08
 *** RESPONSE FREQ = 0.8576E+07   PERIOD=  0.1166E-06  PTS/CYC =  23.    
 *** AUTO STEP TIME:  NEXT TIME INC = 0.50000E-08  UNCHANGED

     FORCE CONVERGENCE VALUE  =  0.3108E-05  CRITERION=  0.1000E-02
     CURRENT CONVERGENCE VALUE=   0.000      CRITERION=  0.1450E-10
    EQUIL ITER   1 COMPLETED.  NEW TRIANG MATRIX.  MAX DOF INC=  0.3000E-07
     FORCE CONVERGENCE VALUE  =  0.3716E-05  CRITERION=  0.1000E-02 <<< CONVERGED
     CURRENT CONVERGENCE VALUE=   0.000      CRITERION=  0.3080E-10 <<< CONVERGED
    >>> SOLUTION CONVERGED AFTER EQUILIBRIUM ITERATION   1
 *** LOAD STEP     1   SUBSTEP    56  COMPLETED.    CUM ITER =     57
 *** TIME =  0.142317E-06     TIME INC =  0.500000E-08
 *** RESPONSE FREQ = 0.7604E+07   PERIOD=  0.1315E-06  PTS/CYC =  26.    
 *** AUTO STEP TIME:  NEXT TIME INC = 0.50000E-08  UNCHANGED

     FORCE CONVERGENCE VALUE  =  0.3873E-05  CRITERION=  0.1000E-02
     CURRENT CONVERGENCE VALUE=   0.000      CRITERION=  0.2438E-10
    EQUIL ITER   1 COMPLETED.  NEW TRIANG MATRIX.  MAX DOF INC=  0.3204E-07
     FORCE CONVERGENCE VALUE  =  0.4271E-05  CRITERION=  0.1000E-02 <<< CONVERGED
     CURRENT CONVERGENCE VALUE=   0.000      CRITERION=  0.5653E-10 <<< CONVERGED
    >>> SOLUTION CONVERGED AFTER EQUILIBRIUM ITERATION   1
 *** LOAD STEP     1   SUBSTEP    57  COMPLETED.    CUM ITER =     58
 *** TIME =  0.147317E-06     TIME INC =  0.500000E-08
 *** RESPONSE FREQ = 0.6646E+07   PERIOD=  0.1505E-06  PTS/CYC =  30.    
 *** AUTO STEP TIME:  NEXT TIME INC = 0.50000E-08  UNCHANGED

     FORCE CONVERGENCE VALUE  =  0.4389E-05  CRITERION=  0.1000E-02
     CURRENT CONVERGENCE VALUE=   0.000      CRITERION=  0.4447E-10
    EQUIL ITER   1 COMPLETED.  NEW TRIANG MATRIX.  MAX DOF INC=  0.3156E-07
     FORCE CONVERGENCE VALUE  =  0.4177E-05  CRITERION=  0.1000E-02 <<< CONVERGED
     CURRENT CONVERGENCE VALUE=   0.000      CRITERION=  0.1325E-09 <<< CONVERGED
    >>> SOLUTION CONVERGED AFTER EQUILIBRIUM ITERATION   1
 *** LOAD STEP     1   SUBSTEP    58  COMPLETED.    CUM ITER =     59
 *** TIME =  0.152317E-06     TIME INC =  0.500000E-08
 *** AUTO STEP TIME:  NEXT TIME INC = 0.50000E-08  UNCHANGED

     FORCE CONVERGENCE VALUE  =  0.4239E-05  CRITERION=  0.1000E-02
     CURRENT CONVERGENCE VALUE=   0.000      CRITERION=  0.1040E-09
    EQUIL ITER   1 COMPLETED.  NEW TRIANG MATRIX.  MAX DOF INC=  0.3180E-07
     FORCE CONVERGENCE VALUE  =  0.5455E-04  CRITERION=  0.1000E-02 <<< CONVERGED
     CURRENT CONVERGENCE VALUE=   0.000      CRITERION=  0.3402E-10 <<< CONVERGED
    >>> SOLUTION CONVERGED AFTER EQUILIBRIUM ITERATION   1
 *** LOAD STEP     1   SUBSTEP    59  COMPLETED.    CUM ITER =     60
 *** TIME =  0.157317E-06     TIME INC =  0.500000E-08
 *** RESPONSE FREQ = 0.6501E+09   PERIOD=  0.1538E-08  PTS/CYC = 0.31    
 *** AUTO TIME STEP:  NEXT TIME INC = 0.25000E-08  DECREASED (FACTOR = 0.5000)

     FORCE CONVERGENCE VALUE  =  0.6044E-04  CRITERION=  0.1000E-02
     CURRENT CONVERGENCE VALUE=   0.000      CRITERION=  0.2720E-10
    EQUIL ITER   1 COMPLETED.  NEW TRIANG MATRIX.  MAX DOF INC= -0.1481E-07
     FORCE CONVERGENCE VALUE  =  0.8089E-05  CRITERION=  0.1000E-02 <<< CONVERGED
     CURRENT CONVERGENCE VALUE=   0.000      CRITERION=  0.4203E-10 <<< CONVERGED
    >>> SOLUTION CONVERGED AFTER EQUILIBRIUM ITERATION   1
 *** LOAD STEP     1   SUBSTEP    60  COMPLETED.    CUM ITER =     61
 *** TIME =  0.159817E-06     TIME INC =  0.250000E-08
 *** RESPONSE FREQ = 0.6574E+09   PERIOD=  0.1521E-08  PTS/CYC = 0.61    
 *** AUTO TIME STEP:  NEXT TIME INC = 0.12500E-08  DECREASED (FACTOR = 0.5000)

     FORCE CONVERGENCE VALUE  =  0.1312E-04  CRITERION=  0.1000E-02
     CURRENT CONVERGENCE VALUE=   0.000      CRITERION=  0.3949E-10
    EQUIL ITER   1 COMPLETED.  NEW TRIANG MATRIX.  MAX DOF INC= -0.5185E-08
     FORCE CONVERGENCE VALUE  =  0.1048E-04  CRITERION=  0.1000E-02 <<< CONVERGED
     CURRENT CONVERGENCE VALUE=   0.000      CRITERION=  0.2967E-09 <<< CONVERGED
    >>> SOLUTION CONVERGED AFTER EQUILIBRIUM ITERATION   1
 *** LOAD STEP     1   SUBSTEP    61  COMPLETED.    CUM ITER =     62
 *** TIME =  0.161067E-06     TIME INC =  0.125000E-08
 *** RESPONSE FREQ = 0.8184E+08   PERIOD=  0.1222E-07  PTS/CYC =  9.8    
 *** AUTO TIME STEP:  NEXT TIME INC = 0.62500E-09  DECREASED (FACTOR = 0.5000)

     FORCE CONVERGENCE VALUE  =  0.2456E-04  CRITERION=  0.1000E-02
     CURRENT CONVERGENCE VALUE=   0.000      CRITERION=  0.3052E-09
    EQUIL ITER   1 COMPLETED.  NEW TRIANG MATRIX.  MAX DOF INC=  0.1135E-07
     FORCE CONVERGENCE VALUE  =  0.2974E-04  CRITERION=  0.1000E-02 <<< CONVERGED
     CURRENT CONVERGENCE VALUE=   0.000      CRITERION=  0.4607E-10 <<< CONVERGED
    >>> SOLUTION CONVERGED AFTER EQUILIBRIUM ITERATION   1
 *** LOAD STEP     1   SUBSTEP    62  COMPLETED.    CUM ITER =     63
 *** TIME =  0.161692E-06     TIME INC =  0.625000E-09
 *** RESPONSE FREQ = 0.6576E+09   PERIOD=  0.1521E-08  PTS/CYC =  2.4    
 *** AUTO TIME STEP:  NEXT TIME INC = 0.31250E-09  DECREASED (FACTOR = 0.5000)

     FORCE CONVERGENCE VALUE  =  0.4917E-04  CRITERION=  0.1000E-02
     CURRENT CONVERGENCE VALUE=   0.000      CRITERION=  0.3905E-10
    EQUIL ITER   1 COMPLETED.  NEW TRIANG MATRIX.  MAX DOF INC= -0.2382E-08
     FORCE CONVERGENCE VALUE  =  0.4101E-05  CRITERION=  0.1000E-02 <<< CONVERGED
     CURRENT CONVERGENCE VALUE=   0.000      CRITERION=  0.3641E-10 <<< CONVERGED
    >>> SOLUTION CONVERGED AFTER EQUILIBRIUM ITERATION   1
 *** LOAD STEP     1   SUBSTEP    63  COMPLETED.    CUM ITER =     64
 *** TIME =  0.162004E-06     TIME INC =  0.312500E-09
 *** RESPONSE FREQ = 0.6724E+09   PERIOD=  0.1487E-08  PTS/CYC =  4.8    
 *** AUTO TIME STEP:  NEXT TIME INC = 0.15625E-09  DECREASED (FACTOR = 0.5000)

     FORCE CONVERGENCE VALUE  =  0.7856E-04  CRITERION=  0.1000E-02
     CURRENT CONVERGENCE VALUE=   0.000      CRITERION=  0.2867E-10
    EQUIL ITER   1 COMPLETED.  NEW TRIANG MATRIX.  MAX DOF INC= -0.3802E-08
     FORCE CONVERGENCE VALUE  =  0.1117E-05  CRITERION=  0.1000E-02 <<< CONVERGED
     CURRENT CONVERGENCE VALUE=   0.000      CRITERION=  0.3163E-10 <<< CONVERGED
    >>> SOLUTION CONVERGED AFTER EQUILIBRIUM ITERATION   1
 *** LOAD STEP     1   SUBSTEP    64  COMPLETED.    CUM ITER =     65
 *** TIME =  0.162161E-06     TIME INC =  0.156250E-09
 *** RESPONSE FREQ = 0.6599E+09   PERIOD=  0.1515E-08  PTS/CYC =  9.7    
 *** AUTO TIME STEP:  NEXT TIME INC = 0.10000E-09  DECREASED (FACTOR = 0.6400)

     FORCE CONVERGENCE VALUE  =  0.1991E-03  CRITERION=  0.1000E-02
     CURRENT CONVERGENCE VALUE=   0.000      CRITERION=  0.2483E-10
    EQUIL ITER   1 COMPLETED.  NEW TRIANG MATRIX.  MAX DOF INC= -0.3923E-08
     FORCE CONVERGENCE VALUE  =  0.1140E-05  CRITERION=  0.1000E-02 <<< CONVERGED
     CURRENT CONVERGENCE VALUE=   0.000      CRITERION=  0.3712E-10 <<< CONVERGED
    >>> SOLUTION CONVERGED AFTER EQUILIBRIUM ITERATION   1
 *** LOAD STEP     1   SUBSTEP    65  COMPLETED.    CUM ITER =     66
 *** TIME =  0.162261E-06     TIME INC =  0.100000E-09
 *** RESPONSE FREQ = 0.6588E+09   PERIOD=  0.1518E-08  PTS/CYC =  15.    
 *** AUTO STEP TIME:  NEXT TIME INC = 0.10000E-09  UNCHANGED

     FORCE CONVERGENCE VALUE  =  0.2260E-03  CRITERION=  0.1000E-02
     CURRENT CONVERGENCE VALUE=   0.000      CRITERION=  0.3000E-10
    EQUIL ITER   1 COMPLETED.  NEW TRIANG MATRIX.  MAX DOF INC= -0.4341E-08
     FORCE CONVERGENCE VALUE  =  0.2573E-05  CRITERION=  0.1000E-02 <<< CONVERGED
     CURRENT CONVERGENCE VALUE=   0.000      CRITERION=  0.1572E-08 <<< CONVERGED
    >>> SOLUTION CONVERGED AFTER EQUILIBRIUM ITERATION   1
 *** LOAD STEP     1   SUBSTEP    66  COMPLETED.    CUM ITER =     67
 *** TIME =  0.162361E-06     TIME INC =  0.100000E-09
 *** RESPONSE FREQ = 0.8599E+08   PERIOD=  0.1163E-07  PTS/CYC = 0.12E+03
 *** AUTO TIME STEP:  NEXT TIME INC = 0.15000E-09  INCREASED (FACTOR = 1.5000)

     FORCE CONVERGENCE VALUE  =  0.1435E-03  CRITERION=  0.1000E-02
     CURRENT CONVERGENCE VALUE=   0.000      CRITERION=  0.1239E-08
    EQUIL ITER   1 COMPLETED.  NEW TRIANG MATRIX.  MAX DOF INC= -0.6447E-08
     FORCE CONVERGENCE VALUE  =  0.1493E-05  CRITERION=  0.1000E-02 <<< CONVERGED
     CURRENT CONVERGENCE VALUE=   0.000      CRITERION=  0.1233E-08 <<< CONVERGED
    >>> SOLUTION CONVERGED AFTER EQUILIBRIUM ITERATION   1
 *** LOAD STEP     1   SUBSTEP    67  COMPLETED.    CUM ITER =     68
 *** TIME =  0.162511E-06     TIME INC =  0.150000E-09
 *** RESPONSE FREQ = 0.5280E+08   PERIOD=  0.1894E-07  PTS/CYC = 0.13E+03
 *** AUTO TIME STEP:  NEXT TIME INC = 0.22500E-09  INCREASED (FACTOR = 1.5000)

     FORCE CONVERGENCE VALUE  =  0.9514E-04  CRITERION=  0.1000E-02
     CURRENT CONVERGENCE VALUE=   0.000      CRITERION=  0.9679E-09
    EQUIL ITER   1 COMPLETED.  NEW TRIANG MATRIX.  MAX DOF INC= -0.9499E-08
     FORCE CONVERGENCE VALUE  =  0.1982E-05  CRITERION=  0.1000E-02 <<< CONVERGED
     CURRENT CONVERGENCE VALUE=   0.000      CRITERION=  0.8544E-09 <<< CONVERGED
    >>> SOLUTION CONVERGED AFTER EQUILIBRIUM ITERATION   1
 *** LOAD STEP     1   SUBSTEP    68  COMPLETED.    CUM ITER =     69
 *** TIME =  0.162736E-06     TIME INC =  0.225000E-09
 *** RESPONSE FREQ = 0.4796E+08   PERIOD=  0.2085E-07  PTS/CYC =  93.    
 *** AUTO TIME STEP:  NEXT TIME INC = 0.33750E-09  INCREASED (FACTOR = 1.5000)

     FORCE CONVERGENCE VALUE  =  0.6357E-04  CRITERION=  0.1000E-02
     CURRENT CONVERGENCE VALUE=   0.000      CRITERION=  0.6704E-09
    EQUIL ITER   1 COMPLETED.  NEW TRIANG MATRIX.  MAX DOF INC= -0.1422E-07
     FORCE CONVERGENCE VALUE  =  0.4162E-05  CRITERION=  0.1000E-02 <<< CONVERGED
     CURRENT CONVERGENCE VALUE=   0.000      CRITERION=  0.5771E-09 <<< CONVERGED
    >>> SOLUTION CONVERGED AFTER EQUILIBRIUM ITERATION   1
 *** LOAD STEP     1   SUBSTEP    69  COMPLETED.    CUM ITER =     70
 *** TIME =  0.163073E-06     TIME INC =  0.337500E-09
 *** RESPONSE FREQ = 0.4056E+08   PERIOD=  0.2465E-07  PTS/CYC =  73.    
 *** AUTO TIME STEP:  NEXT TIME INC = 0.50625E-09  INCREASED (FACTOR = 1.5000)

     FORCE CONVERGENCE VALUE  =  0.4209E-04  CRITERION=  0.1000E-02
     CURRENT CONVERGENCE VALUE=   0.000      CRITERION=  0.4529E-09
    EQUIL ITER   1 COMPLETED.  NEW TRIANG MATRIX.  MAX DOF INC= -0.2097E-07
     FORCE CONVERGENCE VALUE  =  0.4473E-05  CRITERION=  0.1000E-02 <<< CONVERGED
     CURRENT CONVERGENCE VALUE=   0.000      CRITERION=  0.3513E-09 <<< CONVERGED
    >>> SOLUTION CONVERGED AFTER EQUILIBRIUM ITERATION   1
 *** LOAD STEP     1   SUBSTEP    70  COMPLETED.    CUM ITER =     71
 *** TIME =  0.163579E-06     TIME INC =  0.506250E-09
 *** RESPONSE FREQ = 0.2842E+08   PERIOD=  0.3519E-07  PTS/CYC =  70.    
 *** AUTO TIME STEP:  NEXT TIME INC = 0.75937E-09  INCREASED (FACTOR = 1.5000)

     FORCE CONVERGENCE VALUE  =  0.2837E-04  CRITERION=  0.1000E-02
     CURRENT CONVERGENCE VALUE=   0.000      CRITERION=  0.2767E-09
    EQUIL ITER   1 COMPLETED.  NEW TRIANG MATRIX.  MAX DOF INC= -0.3143E-07
     FORCE CONVERGENCE VALUE  =  0.1164E-04  CRITERION=  0.1000E-02 <<< CONVERGED
     CURRENT CONVERGENCE VALUE=   0.000      CRITERION=  0.2098E-09 <<< CONVERGED
    >>> SOLUTION CONVERGED AFTER EQUILIBRIUM ITERATION   1
 *** LOAD STEP     1   SUBSTEP    71  COMPLETED.    CUM ITER =     72
 *** TIME =  0.164339E-06     TIME INC =  0.759375E-09
 *** RESPONSE FREQ = 0.3650E+08   PERIOD=  0.2739E-07  PTS/CYC =  36.    
 *** AUTO TIME STEP:  NEXT TIME INC = 0.11391E-08  INCREASED (FACTOR = 1.5000)

     FORCE CONVERGENCE VALUE  =  0.2222E-04  CRITERION=  0.1000E-02
     CURRENT CONVERGENCE VALUE=   0.000      CRITERION=  0.1647E-09
    EQUIL ITER   1 COMPLETED.  NEW TRIANG MATRIX.  MAX DOF INC= -0.4554E-07
     FORCE CONVERGENCE VALUE  =  0.1304E-04  CRITERION=  0.1000E-02 <<< CONVERGED
     CURRENT CONVERGENCE VALUE=   0.000      CRITERION=  0.1198E-09 <<< CONVERGED
    >>> SOLUTION CONVERGED AFTER EQUILIBRIUM ITERATION   1
 *** LOAD STEP     1   SUBSTEP    72  COMPLETED.    CUM ITER =     73
 *** TIME =  0.165478E-06     TIME INC =  0.113906E-08
 *** RESPONSE FREQ = 0.1852E+08   PERIOD=  0.5399E-07  PTS/CYC =  47.    
 *** AUTO TIME STEP:  NEXT TIME INC = 0.17086E-08  INCREASED (FACTOR = 1.5000)

     FORCE CONVERGENCE VALUE  =  0.1896E-04  CRITERION=  0.1000E-02
     CURRENT CONVERGENCE VALUE=   0.000      CRITERION=  0.9559E-10
    EQUIL ITER   1 COMPLETED.  NEW TRIANG MATRIX.  MAX DOF INC= -0.7172E-07
     FORCE CONVERGENCE VALUE  =  0.2241E-04  CRITERION=  0.1000E-02 <<< CONVERGED
     CURRENT CONVERGENCE VALUE=   0.000      CRITERION=  0.6777E-10 <<< CONVERGED
    >>> SOLUTION CONVERGED AFTER EQUILIBRIUM ITERATION   1
 *** LOAD STEP     1   SUBSTEP    73  COMPLETED.    CUM ITER =     74
 *** TIME =  0.167186E-06     TIME INC =  0.170859E-08
 *** RESPONSE FREQ = 0.2128E+08   PERIOD=  0.4700E-07  PTS/CYC =  28.    
 *** AUTO TIME STEP:  NEXT TIME INC = 0.23501E-08  INCREASED (FACTOR = 1.3755)

     FORCE CONVERGENCE VALUE  =  0.2626E-04  CRITERION=  0.1000E-02
     CURRENT CONVERGENCE VALUE=   0.000      CRITERION=  0.5375E-10
    EQUIL ITER   1 COMPLETED.  NEW TRIANG MATRIX.  MAX DOF INC= -0.9947E-07
     FORCE CONVERGENCE VALUE  =  0.6077E-04  CRITERION=  0.1000E-02 <<< CONVERGED
     CURRENT CONVERGENCE VALUE=   0.000      CRITERION=  0.3098E-10 <<< CONVERGED
    >>> SOLUTION CONVERGED AFTER EQUILIBRIUM ITERATION   1
 *** LOAD STEP     1   SUBSTEP    74  COMPLETED.    CUM ITER =     75
 *** TIME =  0.169536E-06     TIME INC =  0.235015E-08
 *** RESPONSE FREQ = 0.2687E+08   PERIOD=  0.3722E-07  PTS/CYC =  16.    
 *** AUTO TIME STEP:  NEXT TIME INC = 0.18608E-08  DECREASED (FACTOR = 0.7918)

     FORCE CONVERGENCE VALUE  =  0.6661E-04  CRITERION=  0.1000E-02
     CURRENT CONVERGENCE VALUE=   0.000      CRITERION=  0.2415E-10
    EQUIL ITER   1 COMPLETED.  NEW TRIANG MATRIX.  MAX DOF INC= -0.7465E-07
     FORCE CONVERGENCE VALUE  =  0.3375E-04  CRITERION=  0.1000E-02 <<< CONVERGED
     CURRENT CONVERGENCE VALUE=   0.000      CRITERION=  0.1926E-10 <<< CONVERGED
    >>> SOLUTION CONVERGED AFTER EQUILIBRIUM ITERATION   1
 *** LOAD STEP     1   SUBSTEP    75  COMPLETED.    CUM ITER =     76
 *** TIME =  0.171397E-06     TIME INC =  0.186080E-08
 *** RESPONSE FREQ = 0.1972E+08   PERIOD=  0.5071E-07  PTS/CYC =  27.    
 *** AUTO STEP TIME:  NEXT TIME INC = 0.18608E-08  UNCHANGED

     FORCE CONVERGENCE VALUE  =  0.3394E-04  CRITERION=  0.1000E-02
     CURRENT CONVERGENCE VALUE=   0.000      CRITERION=  0.1502E-10
    EQUIL ITER   1 COMPLETED.  NEW TRIANG MATRIX.  MAX DOF INC= -0.6402E-07
     FORCE CONVERGENCE VALUE  =  0.2087E-04  CRITERION=  0.1000E-02 <<< CONVERGED
     CURRENT CONVERGENCE VALUE=   0.000      CRITERION=  0.1326E-10 <<< CONVERGED
    >>> SOLUTION CONVERGED AFTER EQUILIBRIUM ITERATION   1
 *** LOAD STEP     1   SUBSTEP    76  COMPLETED.    CUM ITER =     77
 *** TIME =  0.173258E-06     TIME INC =  0.186080E-08
 *** RESPONSE FREQ = 0.1682E+08   PERIOD=  0.5946E-07  PTS/CYC =  32.    
 *** AUTO TIME STEP:  NEXT TIME INC = 0.27912E-08  INCREASED (FACTOR = 1.5000)

     FORCE CONVERGENCE VALUE  =  0.2216E-04  CRITERION=  0.1000E-02
     CURRENT CONVERGENCE VALUE=   0.000      CRITERION=  0.1042E-10
    EQUIL ITER   1 COMPLETED.  NEW TRIANG MATRIX.  MAX DOF INC= -0.9128E-07
     FORCE CONVERGENCE VALUE  =  0.4016E-04  CRITERION=  0.1000E-02 <<< CONVERGED
     CURRENT CONVERGENCE VALUE=   0.000      CRITERION=  0.8283E-11 <<< CONVERGED
    >>> SOLUTION CONVERGED AFTER EQUILIBRIUM ITERATION   1
[...]
     CURRENT CONVERGENCE VALUE=   0.000      CRITERION=  0.6527E-22 <<< CONVERGED
    >>> SOLUTION CONVERGED AFTER EQUILIBRIUM ITERATION   1
 *** LOAD STEP     3   SUBSTEP   176  COMPLETED.    CUM ITER =    268
 *** TIME =  0.369690E-06     TIME INC =  0.448989E-09
 *** RESPONSE FREQ = 0.6860E+08   PERIOD=  0.1458E-07  PTS/CYC =  32.    
 *** AUTO TIME STEP:  NEXT TIME INC = 0.67348E-09  INCREASED (FACTOR = 1.5000)

     FORCE CONVERGENCE VALUE  =  0.1063E-04  CRITERION=  0.1000E-02
     CURRENT CONVERGENCE VALUE=   0.000      CRITERION=  0.5130E-22
    EQUIL ITER   1 COMPLETED.  NEW TRIANG MATRIX.  MAX DOF INC= -0.1001E-07
     FORCE CONVERGENCE VALUE  =  0.2004E-05  CRITERION=  0.1000E-02 <<< CONVERGED
     CURRENT CONVERGENCE VALUE=   0.000      CRITERION=  0.5088E-22 <<< CONVERGED
    >>> SOLUTION CONVERGED AFTER EQUILIBRIUM ITERATION   1
 *** LOAD STEP     3   SUBSTEP   177  COMPLETED.    CUM ITER =    269
 *** TIME =  0.370363E-06     TIME INC =  0.673484E-09
 *** RESPONSE FREQ = 0.5068E+08   PERIOD=  0.1973E-07  PTS/CYC =  29.    
 *** AUTO TIME STEP:  NEXT TIME INC = 0.98667E-09  INCREASED (FACTOR = 1.4650)

     FORCE CONVERGENCE VALUE  =  0.7820E-05  CRITERION=  0.1000E-02
     CURRENT CONVERGENCE VALUE=   0.000      CRITERION=  0.4006E-22
    EQUIL ITER   1 COMPLETED.  NEW TRIANG MATRIX.  MAX DOF INC= -0.1521E-07
     FORCE CONVERGENCE VALUE  =  0.3450E-05  CRITERION=  0.1000E-02 <<< CONVERGED
     CURRENT CONVERGENCE VALUE=   0.000      CRITERION=  0.3798E-22 <<< CONVERGED
    >>> SOLUTION CONVERGED AFTER EQUILIBRIUM ITERATION   1
 *** LOAD STEP     3   SUBSTEP   178  COMPLETED.    CUM ITER =    270
 *** TIME =  0.371350E-06     TIME INC =  0.986670E-09
 *** RESPONSE FREQ = 0.4852E+08   PERIOD=  0.2061E-07  PTS/CYC =  21.    
 *** AUTO TIME STEP:  NEXT TIME INC = 0.10304E-08  INCREASED (FACTOR = 1.0444)

     FORCE CONVERGENCE VALUE  =  0.8052E-05  CRITERION=  0.1000E-02
     CURRENT CONVERGENCE VALUE=   0.000      CRITERION=  0.3004E-22
    EQUIL ITER   1 COMPLETED.  NEW TRIANG MATRIX.  MAX DOF INC= -0.1670E-07
     FORCE CONVERGENCE VALUE  =  0.3036E-05  CRITERION=  0.1000E-02 <<< CONVERGED
     CURRENT CONVERGENCE VALUE=   0.000      CRITERION=  0.2960E-22 <<< CONVERGED
    >>> SOLUTION CONVERGED AFTER EQUILIBRIUM ITERATION   1
 *** LOAD STEP     3   SUBSTEP   179  COMPLETED.    CUM ITER =    271
 *** TIME =  0.372380E-06     TIME INC =  0.103044E-08
 *** RESPONSE FREQ = 0.3387E+08   PERIOD=  0.2952E-07  PTS/CYC =  29.    
 *** AUTO TIME STEP:  NEXT TIME INC = 0.14761E-08  INCREASED (FACTOR = 1.4325)

     FORCE CONVERGENCE VALUE  =  0.6316E-05  CRITERION=  0.1000E-02
     CURRENT CONVERGENCE VALUE=   0.000      CRITERION=  0.2338E-22
    EQUIL ITER   1 COMPLETED.  NEW TRIANG MATRIX.  MAX DOF INC= -0.2846E-07
     FORCE CONVERGENCE VALUE  =  0.8974E-05  CRITERION=  0.1000E-02 <<< CONVERGED
     CURRENT CONVERGENCE VALUE=   0.000      CRITERION=  0.2113E-22 <<< CONVERGED
    >>> SOLUTION CONVERGED AFTER EQUILIBRIUM ITERATION   1
 *** LOAD STEP     3   SUBSTEP   180  COMPLETED.    CUM ITER =    272
 *** TIME =  0.373856E-06     TIME INC =  0.147610E-08
 *** RESPONSE FREQ = 0.3585E+08   PERIOD=  0.2790E-07  PTS/CYC =  19.    
 *** AUTO TIME STEP:  NEXT TIME INC = 0.13948E-08  DECREASED (FACTOR = 0.9449)

     FORCE CONVERGENCE VALUE  =  0.1131E-04  CRITERION=  0.1000E-02
     CURRENT CONVERGENCE VALUE=   0.000      CRITERION=  0.1672E-22
    EQUIL ITER   1 COMPLETED.  NEW TRIANG MATRIX.  MAX DOF INC= -0.3284E-07
     FORCE CONVERGENCE VALUE  =  0.1095E-04  CRITERION=  0.1000E-02 <<< CONVERGED
     CURRENT CONVERGENCE VALUE=   0.000      CRITERION=  0.1537E-22 <<< CONVERGED
    >>> SOLUTION CONVERGED AFTER EQUILIBRIUM ITERATION   1
 *** LOAD STEP     3   SUBSTEP   181  COMPLETED.    CUM ITER =    273
 *** TIME =  0.375251E-06     TIME INC =  0.139476E-08
 *** RESPONSE FREQ = 0.3655E+08   PERIOD=  0.2736E-07  PTS/CYC =  20.    
 *** AUTO TIME STEP:  NEXT TIME INC = 0.13680E-08  DECREASED (FACTOR = 0.9808)

     FORCE CONVERGENCE VALUE  =  0.1280E-04  CRITERION=  0.1000E-02
     CURRENT CONVERGENCE VALUE=   0.000      CRITERION=  0.1209E-22
    EQUIL ITER   1 COMPLETED.  NEW TRIANG MATRIX.  MAX DOF INC= -0.2394E-07
     FORCE CONVERGENCE VALUE  =  0.5325E-05  CRITERION=  0.1000E-02 <<< CONVERGED
     CURRENT CONVERGENCE VALUE=   0.000      CRITERION=  0.1149E-22 <<< CONVERGED
    >>> SOLUTION CONVERGED AFTER EQUILIBRIUM ITERATION   1
 *** LOAD STEP     3   SUBSTEP   182  COMPLETED.    CUM ITER =    274
 *** TIME =  0.376619E-06     TIME INC =  0.136796E-08
 *** RESPONSE FREQ = 0.2588E+08   PERIOD=  0.3864E-07  PTS/CYC =  28.    
 *** AUTO STEP TIME:  NEXT TIME INC = 0.13680E-08  UNCHANGED

     FORCE CONVERGENCE VALUE  =  0.6918E-05  CRITERION=  0.1000E-02
     CURRENT CONVERGENCE VALUE=   0.000      CRITERION=  0.9019E-23
    EQUIL ITER   1 COMPLETED.  NEW TRIANG MATRIX.  MAX DOF INC= -0.1980E-07
     FORCE CONVERGENCE VALUE  =  0.3135E-05  CRITERION=  0.1000E-02 <<< CONVERGED
     CURRENT CONVERGENCE VALUE=   0.000      CRITERION=  0.8864E-23 <<< CONVERGED
    >>> SOLUTION CONVERGED AFTER EQUILIBRIUM ITERATION   1
 *** LOAD STEP     3   SUBSTEP   183  COMPLETED.    CUM ITER =    275
 *** TIME =  0.377987E-06     TIME INC =  0.136796E-08
 *** RESPONSE FREQ = 0.2439E+08   PERIOD=  0.4100E-07  PTS/CYC =  30.    
 *** AUTO TIME STEP:  NEXT TIME INC = 0.20500E-08  INCREASED (FACTOR = 1.4986)

     FORCE CONVERGENCE VALUE  =  0.4380E-05  CRITERION=  0.1000E-02
     CURRENT CONVERGENCE VALUE=   0.000      CRITERION=  0.6958E-23
    EQUIL ITER   1 COMPLETED.  NEW TRIANG MATRIX.  MAX DOF INC= -0.3059E-07
     FORCE CONVERGENCE VALUE  =  0.6902E-05  CRITERION=  0.1000E-02 <<< CONVERGED
     CURRENT CONVERGENCE VALUE=   0.000      CRITERION=  0.6619E-23 <<< CONVERGED
    >>> SOLUTION CONVERGED AFTER EQUILIBRIUM ITERATION   1
 *** LOAD STEP     3   SUBSTEP   184  COMPLETED.    CUM ITER =    276
 *** TIME =  0.380037E-06     TIME INC =  0.205003E-08
 *** RESPONSE FREQ = 0.2755E+08   PERIOD=  0.3630E-07  PTS/CYC =  18.    
 *** AUTO TIME STEP:  NEXT TIME INC = 0.18152E-08  DECREASED (FACTOR = 0.8855)

     FORCE CONVERGENCE VALUE  =  0.8225E-05  CRITERION=  0.1000E-02
     CURRENT CONVERGENCE VALUE=   0.000      CRITERION=  0.5208E-23
    EQUIL ITER   1 COMPLETED.  NEW TRIANG MATRIX.  MAX DOF INC= -0.2388E-07
     FORCE CONVERGENCE VALUE  =  0.2909E-05  CRITERION=  0.1000E-02 <<< CONVERGED
     CURRENT CONVERGENCE VALUE=   0.000      CRITERION=  0.5500E-23 <<< CONVERGED
    >>> SOLUTION CONVERGED AFTER EQUILIBRIUM ITERATION   1
 *** LOAD STEP     3   SUBSTEP   185  COMPLETED.    CUM ITER =    277
 *** TIME =  0.381852E-06     TIME INC =  0.181521E-08
 *** RESPONSE FREQ = 0.1634E+08   PERIOD=  0.6121E-07  PTS/CYC =  34.    
 *** AUTO STEP TIME:  NEXT TIME INC = 0.18152E-08  UNCHANGED

     FORCE CONVERGENCE VALUE  =  0.4681E-05  CRITERION=  0.1000E-02
     CURRENT CONVERGENCE VALUE=   0.000      CRITERION=  0.4345E-23
    EQUIL ITER   1 COMPLETED.  NEW TRIANG MATRIX.  MAX DOF INC= -0.3166E-07
     FORCE CONVERGENCE VALUE  =  0.4875E-05  CRITERION=  0.1000E-02 <<< CONVERGED
     CURRENT CONVERGENCE VALUE=   0.000      CRITERION=  0.4650E-23 <<< CONVERGED
    >>> SOLUTION CONVERGED AFTER EQUILIBRIUM ITERATION   1
 *** LOAD STEP     3   SUBSTEP   186  COMPLETED.    CUM ITER =    278
 *** TIME =  0.383667E-06     TIME INC =  0.181521E-08
 *** RESPONSE FREQ = 0.2324E+08   PERIOD=  0.4304E-07  PTS/CYC =  24.    
 *** AUTO TIME STEP:  NEXT TIME INC = 0.21519E-08  INCREASED (FACTOR = 1.1855)

     FORCE CONVERGENCE VALUE  =  0.6041E-05  CRITERION=  0.1000E-02
     CURRENT CONVERGENCE VALUE=   0.000      CRITERION=  0.3674E-23
    EQUIL ITER   1 COMPLETED.  NEW TRIANG MATRIX.  MAX DOF INC= -0.3229E-07
     FORCE CONVERGENCE VALUE  =  0.6711E-05  CRITERION=  0.1000E-02 <<< CONVERGED
     CURRENT CONVERGENCE VALUE=   0.000      CRITERION=  0.3578E-23 <<< CONVERGED
    >>> SOLUTION CONVERGED AFTER EQUILIBRIUM ITERATION   1
 *** LOAD STEP     3   SUBSTEP   187  COMPLETED.    CUM ITER =    279
 *** TIME =  0.385819E-06     TIME INC =  0.215189E-08
 *** RESPONSE FREQ = 0.2215E+08   PERIOD=  0.4514E-07  PTS/CYC =  21.    
 *** AUTO TIME STEP:  NEXT TIME INC = 0.22571E-08  INCREASED (FACTOR = 1.0489)

     FORCE CONVERGENCE VALUE  =  0.7363E-05  CRITERION=  0.1000E-02
     CURRENT CONVERGENCE VALUE=   0.000      CRITERION=  0.2805E-23
    EQUIL ITER   1 COMPLETED.  NEW TRIANG MATRIX.  MAX DOF INC= -0.2160E-07
     FORCE CONVERGENCE VALUE  =  0.3040E-05  CRITERION=  0.1000E-02 <<< CONVERGED
     CURRENT CONVERGENCE VALUE=   0.000      CRITERION=  0.2768E-23 <<< CONVERGED
    >>> SOLUTION CONVERGED AFTER EQUILIBRIUM ITERATION   1
 *** LOAD STEP     3   SUBSTEP   188  COMPLETED.    CUM ITER =    280
 *** TIME =  0.388076E-06     TIME INC =  0.225712E-08
 *** RESPONSE FREQ = 0.1626E+08   PERIOD=  0.6149E-07  PTS/CYC =  27.    
 *** AUTO TIME STEP:  NEXT TIME INC = 0.30743E-08  INCREASED (FACTOR = 1.3621)

     FORCE CONVERGENCE VALUE  =  0.3263E-05  CRITERION=  0.1000E-02
     CURRENT CONVERGENCE VALUE=   0.000      CRITERION=  0.2168E-23
    EQUIL ITER   1 COMPLETED.  NEW TRIANG MATRIX.  MAX DOF INC= -0.2818E-07
     FORCE CONVERGENCE VALUE  =  0.4359E-05  CRITERION=  0.1000E-02 <<< CONVERGED
     CURRENT CONVERGENCE VALUE=   0.000      CRITERION=  0.1848E-23 <<< CONVERGED
    >>> SOLUTION CONVERGED AFTER EQUILIBRIUM ITERATION   1
 *** LOAD STEP     3   SUBSTEP   189  COMPLETED.    CUM ITER =    281
 *** TIME =  0.391151E-06     TIME INC =  0.307433E-08
 *** RESPONSE FREQ = 0.1799E+08   PERIOD=  0.5560E-07  PTS/CYC =  18.    
 *** AUTO TIME STEP:  NEXT TIME INC = 0.27798E-08  DECREASED (FACTOR = 0.9042)

     FORCE CONVERGENCE VALUE  =  0.4953E-05  CRITERION=  0.1000E-02
     CURRENT CONVERGENCE VALUE=   0.000      CRITERION=  0.1448E-23
    EQUIL ITER   1 COMPLETED.  NEW TRIANG MATRIX.  MAX DOF INC= -0.2285E-07
     FORCE CONVERGENCE VALUE  =  0.4804E-05  CRITERION=  0.1000E-02 <<< CONVERGED
     CURRENT CONVERGENCE VALUE=   0.000      CRITERION=  0.1404E-23 <<< CONVERGED
    >>> SOLUTION CONVERGED AFTER EQUILIBRIUM ITERATION   1
 *** LOAD STEP     3   SUBSTEP   190  COMPLETED.    CUM ITER =    282
 *** TIME =  0.393930E-06     TIME INC =  0.277978E-08
 *** RESPONSE FREQ = 0.1983E+08   PERIOD=  0.5042E-07  PTS/CYC =  18.    
 *** AUTO TIME STEP:  NEXT TIME INC = 0.25209E-08  DECREASED (FACTOR = 0.9069)

     FORCE CONVERGENCE VALUE  =  0.5154E-05  CRITERION=  0.1000E-02
     CURRENT CONVERGENCE VALUE=   0.000      CRITERION=  0.1093E-23
    EQUIL ITER   1 COMPLETED.  NEW TRIANG MATRIX.  MAX DOF INC= -0.2116E-07
     FORCE CONVERGENCE VALUE  =  0.2666E-05  CRITERION=  0.1000E-02 <<< CONVERGED
     CURRENT CONVERGENCE VALUE=   0.000      CRITERION=  0.1272E-23 <<< CONVERGED
    >>> SOLUTION CONVERGED AFTER EQUILIBRIUM ITERATION   1
 *** LOAD STEP     3   SUBSTEP   191  COMPLETED.    CUM ITER =    283
 *** TIME =  0.396451E-06     TIME INC =  0.252094E-08
 *** RESPONSE FREQ = 0.1830E+08   PERIOD=  0.5465E-07  PTS/CYC =  22.    
 *** AUTO STEP TIME:  NEXT TIME INC = 0.25209E-08  UNCHANGED

     FORCE CONVERGENCE VALUE  =  0.2800E-05  CRITERION=  0.1000E-02
     CURRENT CONVERGENCE VALUE=   0.000      CRITERION=  0.1031E-23
    EQUIL ITER   1 COMPLETED.  NEW TRIANG MATRIX.  MAX DOF INC= -0.1531E-07
     FORCE CONVERGENCE VALUE  =  0.2072E-05  CRITERION=  0.1000E-02 <<< CONVERGED
     CURRENT CONVERGENCE VALUE=   0.000      CRITERION=  0.1075E-23 <<< CONVERGED
    >>> SOLUTION CONVERGED AFTER EQUILIBRIUM ITERATION   1
 *** LOAD STEP     3   SUBSTEP   192  COMPLETED.    CUM ITER =    284
 *** TIME =  0.398972E-06     TIME INC =  0.252094E-08
 *** RESPONSE FREQ = 0.2639E+08   PERIOD=  0.3790E-07  PTS/CYC =  15.    
 *** AUTO TIME STEP:  NEXT TIME INC = 0.10277E-08  DECREASED (FACTOR = 0.4077)

     FORCE CONVERGENCE VALUE  =  0.3056E-05  CRITERION=  0.1000E-02
     CURRENT CONVERGENCE VALUE=   0.000      CRITERION=  0.8407E-24
    EQUIL ITER   1 COMPLETED.  NEW TRIANG MATRIX.  MAX DOF INC= -0.5573E-08
     FORCE CONVERGENCE VALUE  =  0.4884E-06  CRITERION=  0.1000E-02 <<< CONVERGED
     CURRENT CONVERGENCE VALUE=   0.000      CRITERION=  0.8141E-24 <<< CONVERGED
    >>> SOLUTION CONVERGED AFTER EQUILIBRIUM ITERATION   1
 *** LOAD STEP     3   SUBSTEP   193  COMPLETED.    CUM ITER =    285
 *** TIME =  0.400000E-06     TIME INC =  0.102768E-08
 *** RESPONSE FREQ = 0.3614E+08   PERIOD=  0.2767E-07  PTS/CYC =  27.    
 ****************************************************
 *************** FINISHED SOLVE FOR LS 3 *************

 *GET  _WALLASOL  FROM  ACTI  ITEM=TIME WALL  VALUE=  2.17472222    

 PRINTOUT RESUMED BY /GOP

 FINISH SOLUTION PROCESSING


 ***** ROUTINE COMPLETED *****  CP =       553.891



 *** ANSYS - ENGINEERING ANALYSIS SYSTEM  RELEASE 2020 R1          20.1     ***
 DISTRIBUTED ANSYS Mechanical Enterprise                       

 20120530  VERSION=WINDOWS x64   02:11:01  APR 04, 2020 CP=    553.891

                                                                               



          ***** ANSYS RESULTS INTERPRETATION (POST1) *****

 *** NOTE ***                            CP =     553.891   TIME= 02:11:01
 The model contains an element type ( TRANS126 ) that operates entirely  
 in the nodal coordinate system.  Viewing nodal displacements or forces  
 in other than the nodal coordinate system may be invalid.  See the      
 elements manual description for more information.                       

 *** NOTE ***                            CP =     553.891   TIME= 02:11:01
 Reading results into the database (SET command) will update the current 
 displacement and force boundary conditions in the database with the     
 values from the results file for that load set.  Note that any          
 subsequent solutions will use these values unless action is taken to    
 either SAVE the current values or not overwrite them (/EXIT,NOSAVE).    

 Set Encoding of XML File to:ISO-8859-1

 Set Output of XML File to:
     PARM,     ,     ,     ,     ,     ,     ,     ,     ,     ,     ,     ,
         ,     ,     ,     ,     ,     ,     ,

 DATABASE WRITTEN ON FILE  parm.xml                                                                                                                                                                                                                                                            

 EXIT THE ANSYS POST1 DATABASE PROCESSOR


 ***** ROUTINE COMPLETED *****  CP =       554.000



 PRINTOUT RESUMED BY /GOP

 *GET  _WALLDONE  FROM  ACTI  ITEM=TIME WALL  VALUE=  2.18361111    

 PARAMETER _PREPTIME =     15.00000000    

 PARAMETER _SOLVTIME =     698.0000000    

 PARAMETER _POSTTIME =     32.00000000    

 PARAMETER _TOTALTIM =     745.0000000    

 *GET  _DLBRATIO  FROM  ACTI  ITEM=SOLU DLBR  VALUE=  1.24481328    

 *GET  _COMBTIME  FROM  ACTI  ITEM=SOLU COMB  VALUE=  31.6291320    
 --- Number of total nodes = 12494
 --- Number of total elements = 7230
 --- Element load balance ratio = 1.24481328
 --- Time to combine distributed files = 31.629132

 EXIT ANSYS WITHOUT SAVING DATABASE


 NUMBER OF WARNING MESSAGES ENCOUNTERED=          8
 NUMBER OF ERROR   MESSAGES ENCOUNTERED=          0

 *** WARNING ***                         CP =     554.250   TIME= 02:11:01
 During this session the elapsed time exceeds the CPU time by 36%.       
 Often this indicates either a lack of physical memory (RAM) required    
 to efficiently handle this simulation or it indicates a particularly    
 slow hard drive configuration.  This simulation can be expected to run  
 faster on identical hardware if additional RAM or a faster hard drive   
 configuration is made available.  For more details, please see the      
 ANSYS Performance Guide which is part of the ANSYS Help system.         

+--------- D I S T R I B U T E D   A N S Y S   S T A T I S T I C S ------------+

Release: 2020 R1            Build: 20.1       Update: UP20191203   Platform: WINDOWS x64 
Date Run: 04/04/2020   Time: 02:11     Process ID: 6268
Operating System: Windows 10  (Build: 18363)

Processor Model: Intel(R) Core(TM) i5-6360U CPU @ 2.00GHz

Compiler: Intel(R) FORTRAN Compiler Version 19.0.0  (Build: 20190206)
          Intel(R) C/C++ Compiler Version 19.0.0  (Build: 20190206)
          Intel(R) Math Kernel Library Version 2019.0.3 Product Build 20190125

Number of machines requested            :    1
Total number of cores available         :    2
Number of physical cores available      :    2
Number of processes requested           :    2
Number of threads per process requested :    1
Total number of cores requested         :    2 (Distributed Memory Parallel)               
MPI Type: INTELMPI
MPI Version: Intel(R) MPI Library 2018 Update 3 for Windows* OS


GPU Acceleration: Not Requested

Job Name: file0
Input File: dummy.dat

  Core                Machine Name   Working Directory
 -----------------------------------------------------
     0             DESKTOP-H2RNGL6   C:\Users\Akash Levy\Documents\NEM-Relay-CAD\_ProjectScratch\ScrAC77
     1             DESKTOP-H2RNGL6   C:\Users\Akash Levy\Documents\NEM-Relay-CAD\_ProjectScratch\ScrAC77
 
Latency time from master to core     1 =    4.279 microseconds
 
Communication speed from master to core     1 =  1132.53 MB/sec

Total CPU time for main thread                    :      549.4 seconds
Total CPU time summed for all threads             :      554.2 seconds

Elapsed time spent obtaining a license            :        1.1 seconds
Elapsed time spent pre-processing model (/PREP7)  :       15.2 seconds
Elapsed time spent solution - preprocessing       :        0.5 seconds
Elapsed time spent computing solution             :      697.0 seconds
Elapsed time spent solution - postprocessing      :       31.6 seconds
Elapsed time spent post-processing model (/POST1) :        0.2 seconds
 
Equation solver used                              :            Sparse (unsymmetric)
Equation solver computational rate                :       13.1 Gflops
Equation solver effective I/O rate                :        3.0 GB/sec

Maximum total memory used                         :      335.0 MB
Maximum total memory allocated                    :     3136.0 MB
Total physical memory available                   :          4 GB

Total amount of I/O written to disk               :       24.9 GB
Total amount of I/O read from disk                :       27.9 GB

+------ E N D   D I S T R I B U T E D   A N S Y S   S T A T I S T I C S -------+


 *---------------------------------------------------------------------------*
 |                                                                           |
 |                       DISTRIBUTED ANSYS RUN COMPLETED                     |
 |                                                                           |
 |---------------------------------------------------------------------------|
 |                                                                           |
 | Ansys 2020 R1               Build 20.1         UP20191203     WINDOWS x64 |
 |                                                                           |
 |---------------------------------------------------------------------------|
 |                                                                           |
 | Database Requested(-db)  1024 MB    Scratch Memory Requested      1024 MB |
 | Maximum Database Used      10 MB    Maximum Scratch Memory Used    161 MB |
 |                                                                           |
 |---------------------------------------------------------------------------|
 |                                                                           |
 |        CP Time      (sec) =        554.250       Time  =  02:11:01        |
 |        Elapsed Time (sec) =        748.000       Date  =  04/04/2020      |
 |                                                                           |
 *---------------------------------------------------------------------------*
