
 ANSYS Academic Teaching Introductory              


 *------------------------------------------------------------------*
 |                                                                  |
 |   W E L C O M E   T O   T H E   A N S Y S (R)  P R O G R A M     |
 |                                                                  |
 *------------------------------------------------------------------*




 ***************************************************************
 *            ANSYS 2020 R1          LEGAL NOTICES             *
 ***************************************************************
 *                                                             *
 * Copyright 1971-2020 ANSYS, Inc.  All rights reserved.       *
 * Unauthorized use, distribution or duplication is            *
 * prohibited.                                                 *
 *                                                             *
 * Ansys is a registered trademark of ANSYS, Inc. or its       *
 * subsidiaries in the United States or other countries.       *
 * See the ANSYS, Inc. online documentation or the ANSYS, Inc. *
 * documentation CD or online help for the complete Legal      *
 * Notice.                                                     *
 *                                                             *
 ***************************************************************
 *                                                             *
 * THIS ANSYS SOFTWARE PRODUCT AND PROGRAM DOCUMENTATION       *
 * INCLUDE TRADE SECRETS AND CONFIDENTIAL AND PROPRIETARY      *
 * PRODUCTS OF ANSYS, INC., ITS SUBSIDIARIES, OR LICENSORS.    *
 * The software products and documentation are furnished by    *
 * ANSYS, Inc. or its subsidiaries under a software license    *
 * agreement that contains provisions concerning               *
 * non-disclosure, copying, length and nature of use,          *
 * compliance with exporting laws, warranties, disclaimers,    *
 * limitations of liability, and remedies, and other           *
 * provisions.  The software products and documentation may be *
 * used, disclosed, transferred, or copied only in accordance  *
 * with the terms and conditions of that software license      *
 * agreement.                                                  *
 *                                                             *
 * ANSYS, Inc. is a UL registered                              *
 * ISO 9001:2015 company.                                      *
 *                                                             *
 ***************************************************************
 *                                                             *
 * This product is subject to U.S. laws governing export and   *
 * re-export.                                                  *
 *                                                             *
 * For U.S. Government users, except as specifically granted   *
 * by the ANSYS, Inc. software license agreement, the use,     *
 * duplication, or disclosure by the United States Government  *
 * is subject to restrictions stated in the ANSYS, Inc.        *
 * software license agreement and FAR 12.212 (for non-DOD      *
 * licenses).                                                  *
 *                                                             *
 ***************************************************************

 2020 R1 
     
 Point Releases and Patches installed:   
     
 Academic Student 2020 R1
 Aqwa 2020 R1
 FENSAP-ICE 2020 R1  


          *****  ANSYS COMMAND LINE ARGUMENTS  *****
  BATCH MODE REQUESTED (-b)    = NOLIST
  INPUT FILE COPY MODE (-c)    = COPY
  DISTRIBUTED MEMORY PARALLEL REQUESTED
       2 PARALLEL PROCESSES REQUESTED WITH SINGLE THREAD PER PROCESS
    TOTAL OF     2 CORES REQUESTED
  DESIGNXPLORER REQUESTED
  INPUT FILE NAME              = C:\Users\AkashLevy\Documents\GitHub\NEM-Relay-CAD\_ProjectScratch\Scr679B\dummy.dat
  OUTPUT FILE NAME             = C:\Users\AkashLevy\Documents\GitHub\NEM-Relay-CAD\_ProjectScratch\Scr679B\solve.out
  START-UP FILE MODE           = NOREAD
  STOP FILE MODE               = NOREAD

 RELEASE= 2020 R1              BUILD= 20.1      UP20191203   VERSION=WINDOWS x64 
 CURRENT JOBNAME=file0  23:35:13  APR 03, 2020 CP=      0.500


 PARAMETER _DS_PROGRESS =     999.0000000    

 /INPUT FILE= ds.dat  LINE=       0



 *** NOTE ***                            CP =       0.750   TIME= 23:35:13
 The /CONFIG,NOELDB command is not valid in a Distributed ANSYS          
 solution.  Command is ignored.                                          

 *GET  _WALLSTRT  FROM  ACTI  ITEM=TIME WALL  VALUE=  23.5869444    

 TITLE= 
 relay--EM Transient Full (F5)                                                 


 SET PARAMETER DIMENSIONS ON  _WB_PROJECTSCRATCH_DIR
  TYPE=STRI  DIMENSIONS=      248        1        1

 PARAMETER _WB_PROJECTSCRATCH_DIR(1) = C:\Users\AkashLevy\Documents\GitHub\NEM-Relay-CAD\_ProjectScratch\Scr679B\

 SET PARAMETER DIMENSIONS ON  _WB_SOLVERFILES_DIR
  TYPE=STRI  DIMENSIONS=      248        1        1

 PARAMETER _WB_SOLVERFILES_DIR(1) = C:\Users\AkashLevy\Documents\GitHub\NEM-Relay-CAD\relay_files\dp0\SYS-9\MECH\

 SET PARAMETER DIMENSIONS ON  _WB_USERFILES_DIR
  TYPE=STRI  DIMENSIONS=      248        1        1

 PARAMETER _WB_USERFILES_DIR(1) = C:\Users\AkashLevy\Documents\GitHub\NEM-Relay-CAD\relay_files\user_files\
 --- Data in consistent MKS units. See Solving Units in the help system for more

 MKS UNITS SPECIFIED FOR INTERNAL    
  LENGTH        (l)  = METER (M)
  MASS          (M)  = KILOGRAM (KG)
  TIME          (t)  = SECOND (SEC)
  TEMPERATURE   (T)  = CELSIUS (C)
  TOFFSET            = 273.0
  CHARGE        (Q)  = COULOMB
  FORCE         (f)  = NEWTON (N) (KG-M/SEC2)
  HEAT               = JOULE (N-M)

  PRESSURE           = PASCAL (NEWTON/M**2)
  ENERGY        (W)  = JOULE (N-M)
  POWER         (P)  = WATT (N-M/SEC)
  CURRENT       (i)  = AMPERE (COULOMBS/SEC)
  CAPACITANCE   (C)  = FARAD
  INDUCTANCE    (L)  = HENRY
  MAGNETIC FLUX      = WEBER
  RESISTANCE    (R)  = OHM
  ELECTRIC POTENTIAL = VOLT

 INPUT  UNITS ARE ALSO SET TO MKS 

 *** ANSYS - ENGINEERING ANALYSIS SYSTEM  RELEASE 2020 R1          20.1     ***
 DISTRIBUTED ANSYS Academic Teaching Introductory              

 01055371  VERSION=WINDOWS x64   23:35:13  APR 03, 2020 CP=      0.750

 relay--EM Transient Full (F5)                                                 



          ***** ANSYS ANALYSIS DEFINITION (PREP7) *****
 *********** Nodes for the whole assembly ***********
 *********** Elements for Body 1 "relay\Solid" ***********
 *********** Send User Defined Coordinate System(s) ***********
 *********** Set Reference Temperature ***********
 *********** Send Materials ***********
 *********** Fixed Supports ***********
 *********** Construct Weak Springs, Prototype 1 ***********
 *********** Create Structural MEMS Load ***********
  
 *** EMTGEN Command Macro
  

 *** NOTE *** Display device has not yet been specified with the /SHOW command.  Display commands ignored. 

  LISTING OF THE DATA ON FILE _emtgen.out
  
  ____________________ EMTGEN MACRO SUMMARY ________________________
  
  Macro has generated successfully 1746 TRANS126 elements.
  
  Component of structural boundary nodes: _CMMEMS348 .
  Component name of generated EMT elements = EMTELM .
  Component name of generated EMT plane nodes = _CM348 .
  Active structural DOF for TRANS126 elements = UZ .
  Initial gap between I and J nodes of EMT element = 1.E-07 .
  Minimal gap between I and J nodes = 4.E-08 .
  Modulus of elasticity for EMT contact stiffness = 1.45E+09 .
  Free-space permittivity value = 8.854E-12 .
  EMT stiffness method = FULL .
  
  ______________________________________________________________________


 ***** ROUTINE COMPLETED *****  CP =        19.000


 --- Number of total nodes = 12494
 --- Number of contact elements = 0
 --- Number of spring elements = 24
 --- Number of bearing elements = 0
 --- Number of solid elements = 5460
 --- Number of condensed parts = 0
 --- Number of total elements = 7230

 *GET  _WALLBSOL  FROM  ACTI  ITEM=TIME WALL  VALUE=  23.5900000    
 ****************************************************************************
 *************************    SOLUTION       ********************************
 ****************************************************************************

 *****  ANSYS SOLUTION ROUTINE  *****


 PERFORM A TRANSIENT ANALYSIS
  THIS WILL BE A NEW ANALYSIS

 LARGE DEFORMATION ANALYSIS

 STEP BOUNDARY CONDITION KEY= 1

 PARAMETER _THICKRATIO =     0.000000000    

 USE SPARSE MATRIX DIRECT SOLVER

 CONTACT INFORMATION PRINTOUT LEVEL       1

 DO NOT COMBINE ELEMENT MATRIX FILES (.emat) AFTER DISTRIBUTED PARALLEL SOLUTION

 DO NOT COMBINE ELEMENT SAVE DATA FILES (.esav) AFTER DISTRIBUTED PARALLEL SOLUTION

 PERFORM A FULL TRANSIENT ANALYSIS
  USING HHT ALGORITHM

 USE SETTINGS FOR MODERATE SPEED DYNAMIIC APPLICATIONS
 SECOND ORDER TRANSIENT PARAMETERS
   GAMMA= 0.1000      (ALPHA= 0.3025      DELTA= 0.6000      ALPHAF= 0.1000      ALPHAM=  0.000    )

 USE DEFAULT FIRST ORDER TRANSIENT PARAMETER THETA= 0.5000    

 USE DEFAULT FIRST ORDER OSCILLATION LIMIT OF  0.5000     FOR AUTO LOADING
  WITH A TOLERANCE OF  0.2000    

 NLDIAG: Nonlinear diagnostics CONT option is set to ON. 
         Writing frequency : each ITERATION.

 DEFINE RESTART CONTROL FOR LOADSTEP LAST
 AT FREQUENCY OF LAST AND NUMBER FOR OVERWRITE IS   -1

 DELETE RESTART FILES OF ENDSTEP
 ****************************************************
 ******************* SOLVE FOR LS 1 OF 3 ****************

 PRINTOUT RESUMED BY /GOP

 SPECIFIED CONSTRAINT VOLT FOR PICKED NODES 
 REAL=_LOADVARI348   IMAG=  0.00000000    

 SPECIFIED CONSTRAINT VOLT FOR PICKED NODES 
 REAL=  0.00000000       IMAG=  0.00000000    

 SPECIFIED CONSTRAINT UX   FOR PICKED NODES 
 REAL=  0.00000000       IMAG=  0.00000000    

 SPECIFIED CONSTRAINT UY   FOR PICKED NODES 
 REAL=  0.00000000       IMAG=  0.00000000    

 SPECIFIED CONSTRAINT UZ   FOR PICKED NODES 
 REAL=  0.00000000       IMAG=  0.00000000    

 ALL SELECT   FOR ITEM=NODE COMPONENT=    
  IN RANGE         1 TO      12494 STEP          1

      12494  NODES (OF      12494  DEFINED) SELECTED BY NSEL  COMMAND.

 ALL SELECT   FOR ITEM=ELEM COMPONENT=    
  IN RANGE         1 TO       7230 STEP          1

       7230  ELEMENTS (OF       7230  DEFINED) SELECTED BY  ESEL  COMMAND.

 USE AUTOMATIC TIME STEPPING THIS LOAD STEP

 USE INITIAL TIME STEP SIZE OF 0.1000000E-08 FOR ALL  DEGREES OF FREEDOM
 FOR AUTOMATIC TIME STEPPING:
   USE 0.1000000E-09 AS THE MINIMUM TIME STEP SIZE
   USE 0.5000000E-08 AS THE MAXIMUM TIME STEP SIZE

 TIME= 0.20000E-06

 INCLUDE TRANSIENT EFFECTS FOR  ALL DEGREES OF FREEDOM THIS LOAD STEP

 ERASE THE CURRENT DATABASE OUTPUT CONTROL TABLE.


 WRITE ALL  ITEMS TO THE DATABASE WITH A FREQUENCY OF NONE
   FOR ALL APPLICABLE ENTITIES

 WRITE NSOL ITEMS TO THE DATABASE WITH A FREQUENCY OF ALL 
   FOR ALL APPLICABLE ENTITIES

 WRITE RSOL ITEMS TO THE DATABASE WITH A FREQUENCY OF ALL 
   FOR ALL APPLICABLE ENTITIES

 WRITE EANG ITEMS TO THE DATABASE WITH A FREQUENCY OF ALL 
   FOR ALL APPLICABLE ENTITIES

 WRITE ETMP ITEMS TO THE DATABASE WITH A FREQUENCY OF ALL 
   FOR ALL APPLICABLE ENTITIES

 WRITE VENG ITEMS TO THE DATABASE WITH A FREQUENCY OF ALL 
   FOR ALL APPLICABLE ENTITIES

 WRITE NLOA ITEMS TO THE DATABASE WITH A FREQUENCY OF ALL 
   FOR ALL APPLICABLE ENTITIES

 WRITE STRS ITEMS TO THE DATABASE WITH A FREQUENCY OF ALL 
   FOR ALL APPLICABLE ENTITIES

 WRITE EPEL ITEMS TO THE DATABASE WITH A FREQUENCY OF ALL 
   FOR ALL APPLICABLE ENTITIES

 WRITE EPPL ITEMS TO THE DATABASE WITH A FREQUENCY OF ALL 
   FOR ALL APPLICABLE ENTITIES

 WRITE CONT ITEMS TO THE DATABASE WITH A FREQUENCY OF ALL 
   FOR ALL APPLICABLE ENTITIES

 WRITE V    ITEMS TO THE DATABASE WITH A FREQUENCY OF ALL 
   FOR ALL APPLICABLE ENTITIES

 WRITE A    ITEMS TO THE DATABASE WITH A FREQUENCY OF ALL 
   FOR ALL APPLICABLE ENTITIES

 PARAMETER ARG1 =     4.700000000    

 PARAMETER ARG2 =     10.00000000    

 PARAMETER EPSR =     4.700000000    

 PARAMETER KN =     10.00000000    

 FINISH SOLUTION PROCESSING


 ***** ROUTINE COMPLETED *****  CP =        19.078



 *** ANSYS - ENGINEERING ANALYSIS SYSTEM  RELEASE 2020 R1          20.1     ***
 DISTRIBUTED ANSYS Academic Teaching Introductory              

 01055371  VERSION=WINDOWS x64   23:35:24  APR 03, 2020 CP=     19.078

                                                                               



          ***** ANSYS ANALYSIS DEFINITION (PREP7) *****

 SELECT       FOR ITEM=ENAM COMPONENT=    
  IN RANGE       126 TO        126 STEP          1

       1746  ELEMENTS (OF       7230  DEFINED) SELECTED BY  ESEL  COMMAND.

 *GET  NELEMS    FROM  ELEM  ITEM=COUN           VALUE=  1746.00000    

 *** WARNING ***                         CP =      19.094   TIME= 23:35:24
 PRINT"HE is not a recognized PREP7 command, abbreviation, or macro.     
  This command will be ignored.                                          

 *** WARNING ***                         CP =      19.094   TIME= 23:35:24
 PRINTNEL is not a recognized PREP7 command, abbreviation, or macro.     
  This command will be ignored.                                          

 PARAMETER ELM =     0.000000000    

 *DO LOOP ON PARAMETER= I FROM  1.0000     TO  1746.0     BY  1.0000    

 PARAMETER ELM =     5485.000000    

 *GET  RNUM      FROM  ELEM      5485  ITEM=ATTR REAL      VALUE=  4.00000000    

 *GET  R7        FROM  RCON      4  ITEM=CONS 7     VALUE= 0.788230866E-25

 PARAMETER R7_NEW =    0.3704685070E-24

 MODIFY REAL CONSTANTS FOR SET      4  STARTING WITH  7  NEW VALUES ARE

   0.37047E-24   0.0000       0.0000       0.0000       0.0000       0.0000    

 *GET  R5        FROM  RCON      4  ITEM=CONS 5     VALUE=  129.086826    

 PARAMETER R5_NEW =     1290.868258    

 MODIFY REAL CONSTANTS FOR SET      4  STARTING WITH  5  NEW VALUES ARE

    1290.9       0.0000      0.37047E-24   0.0000       0.0000       0.0000    

 *ENDDO  INDEX= I                               


 ***** ROUTINE COMPLETED *****  CP =        19.625



 *****  ANSYS SOLUTION ROUTINE  *****

 SELECT ALL ENTITIES OF TYPE= ALL  AND BELOW

 *GET  ANSINTER_  FROM  ACTI  ITEM=INT        VALUE=  0.00000000    

 *IF  ANSINTER_                         ( =   0.00000     )  NE  
      0                                 ( =   0.00000     )  THEN    

 *ENDIF

 *** NOTE ***                            CP =      19.656   TIME= 23:35:25
 The automatic domain decomposition logic has selected the MESH domain   
 decomposition method with 2 processes per solution.                     

 *****  ANSYS SOLVE    COMMAND  *****

 *** NOTE ***                            CP =      19.656   TIME= 23:35:25
 There is no title defined for this analysis.                            

 *** WARNING ***                         CP =      19.656   TIME= 23:35:25
 Element shape checking is currently inactive.  Issue SHPP,ON or         
 SHPP,WARN to reactivate, if desired.                                    

 *** NOTE ***                            CP =      19.703   TIME= 23:35:25
 The model data was checked and warning messages were found.             
  Please review output or errors file (                                  
 C:\Users\AkashLevy\Documents\GitHub\NEM-Relay-CAD\_ProjectScratch\Scr67 
 79B\file0.err ) for these warning messages.                             

 *** SELECTION OF ELEMENT TECHNOLOGIES FOR APPLICABLE ELEMENTS ***
      --- GIVE SUGGESTIONS AND RESET THE KEY OPTIONS ---

 ELEMENT TYPE    1 IS SOLID187. IT IS NOT ASSOCIATED WITH FULLY INCOMPRESSIBLE
 HYPERELASTIC MATERIALS. NO SUGGESTION IS AVAILABLE AND NO RESETTING IS NEEDED.



 *** ANSYS - ENGINEERING ANALYSIS SYSTEM  RELEASE 2020 R1          20.1     ***
 DISTRIBUTED ANSYS Academic Teaching Introductory              

 01055371  VERSION=WINDOWS x64   23:35:25  APR 03, 2020 CP=     19.703

                                                                               



                       S O L U T I O N   O P T I O N S

   PROBLEM DIMENSIONALITY. . . . . . . . . . . . .3-D                  
   DEGREES OF FREEDOM. . . . . . UX   UY   UZ   VOLT
   ANALYSIS TYPE . . . . . . . . . . . . . . . . .TRANSIENT            
      SOLUTION METHOD. . . . . . . . . . . . . . .FULL                 
   OFFSET TEMPERATURE FROM ABSOLUTE ZERO . . . . .  273.15    
   NONLINEAR GEOMETRIC EFFECTS . . . . . . . . . .ON
   EQUATION SOLVER OPTION. . . . . . . . . . . . .SPARSE             
   NEWTON-RAPHSON OPTION . . . . . . . . . . . . .PROGRAM CHOSEN   
   GLOBALLY ASSEMBLED MATRIX . . . . . . . . . . .UNSYMMETRIC

 *** WARNING ***                         CP =      19.734   TIME= 23:35:25
 Material number 3 (used by element 5461) should normally have at least  
 one MP or one TB type command associated with it.  Output of energy by  
 material may not be available.                                          

 *** NOTE ***                            CP =      19.734   TIME= 23:35:25
 The step data was checked and warning messages were found.              
  Please review output or errors file (                                  
 C:\Users\AkashLevy\Documents\GitHub\NEM-Relay-CAD\_ProjectScratch\Scr67 
 79B\file0.err ) for these warning messages.                             

 *** NOTE ***                            CP =      19.734   TIME= 23:35:25
 The Solution Control Option is only valid for single field structural,  
 single field thermal, single field diffusion, coupled                   
 thermal-diffusion analyses and coupled-field analyses with structural   
 degrees of freedom.  The SOLCONTROL,ON command (if present) has been    
 de-activated.                                                           

 *** NOTE ***                            CP =      19.734   TIME= 23:35:25
 This nonlinear analysis defaults to using the full Newton-Raphson       
 solution procedure.  This can be modified using the NROPT command.      

  
  
     D I S T R I B U T E D   D O M A I N   D E C O M P O S E R
  
  ...Number of elements: 7230
  ...Number of nodes:    12494
  ...Decompose to 2 CPU domains
  ...Element load balance ratio =     1.245


                      L O A D   S T E P   O P T I O N S

   LOAD STEP NUMBER. . . . . . . . . . . . . . . .     1
   TIME AT END OF THE LOAD STEP. . . . . . . . . . 0.20000E-06
   AUTOMATIC TIME STEPPING . . . . . . . . . . . .    ON
      STARTING TIME STEP SIZE. . . . . . . . . . . 0.10000E-08
      MINIMUM TIME STEP SIZE . . . . . . . . . . . 0.10000E-09
      MAXIMUM TIME STEP SIZE . . . . . . . . . . . 0.50000E-08
   MAXIMUM NUMBER OF EQUILIBRIUM ITERATIONS. . . .    25
   STEP CHANGE BOUNDARY CONDITIONS . . . . . . . .   YES
   TRANSIENT (INERTIA) EFFECTS
      STRUCTURAL DOFS. . . . . . . . . . . . . . .    ON
      ELECTRIC DOFS. . . . . . . . . . . . . . . .    ON
   TRANSIENT INTEGRATION PARAMETERS
      GAMMA. . . . . . . . . . . . . . . . . . . . 0.10000    
      ALPHA. . . . . . . . . . . . . . . . . . . . 0.30250    
      DELTA. . . . . . . . . . . . . . . . . . . . 0.60000    
      USING HHT TIME INTEGRATION
      ALPHAF . . . . . . . . . . . . . . . . . . . 0.10000    
      ALPHAM . . . . . . . . . . . . . . . . . . .  0.0000    
      THETA. . . . . . . . . . . . . . . . . . . . 0.50000    
      OSCILLATION LIMIT CRITERION. . . . . . . . . 0.50000    
      TOLERANCE. . . . . . . . . . . . . . . . . . 0.20000    
   TERMINATE ANALYSIS IF NOT CONVERGED . . . . . .YES (EXIT)  
   CONVERGENCE CONTROLS. . . . . . . . . . . . . .USE DEFAULTS
   PRINT OUTPUT CONTROLS . . . . . . . . . . . . .NO PRINTOUT
   DATABASE OUTPUT CONTROLS
      ITEM     FREQUENCY   COMPONENT
       ALL       NONE               
      NSOL        ALL               
      RSOL        ALL               
      EANG        ALL               
      ETMP        ALL               
      VENG        ALL               
      NLOA        ALL               
      STRS        ALL               
      EPEL        ALL               
      EPPL        ALL               
      CONT        ALL               
      V           ALL               
      A           ALL               




                         ***********  PRECISE MASS SUMMARY  ***********

   TOTAL RIGID BODY MASS MATRIX ABOUT ORIGIN
               Translational mass               |   Coupled translational/rotational mass
        0.11050E-13    0.0000        0.0000     |     0.0000       0.10498E-20   0.75232E-36
         0.0000       0.11050E-13    0.0000     |   -0.10498E-20    0.0000      -0.18056E-34
         0.0000        0.0000       0.11050E-13 |   -0.75232E-36   0.18056E-34    0.0000    
     ------------------------------------------ | ------------------------------------------
                                                |         Rotational mass (inertia)
                                                |    0.16158E-25   0.35807E-32   0.89190E-40
                                                |    0.35807E-32   0.16158E-25   0.22874E-39
                                                |    0.89235E-40   0.22874E-39   0.32029E-25

   TOTAL MASS = 0.11050E-13
     The mass principal axes coincide with the global Cartesian axes

   CENTER OF MASS (X,Y,Z)=  -0.16340E-20  -0.68085E-22   0.95006E-07

   TOTAL INERTIA ABOUT CENTER OF MASS
        0.16058E-25   0.35807E-32   0.87474E-40
        0.35807E-32   0.16058E-25   0.22867E-39
        0.87474E-40   0.22867E-39   0.32029E-25
     The inertia principal axes coincide with the global Cartesian axes


  *** MASS SUMMARY BY ELEMENT TYPE ***

  TYPE      MASS
     1  0.110497E-13

 Range of element maximum matrix coefficients in global coordinates
 Maximum = 103911.963 at element 3407.                                   
 Minimum = 5195.82996 at element 35.                                     

   *** ELEMENT MATRIX FORMULATION TIMES
     TYPE    NUMBER   ENAME      TOTAL CP  AVE CP

        1      5460  SOLID187      1.875   0.000343
        2        24  COMBIN14      0.000   0.000000
        3      1746  TRANS126      0.047   0.000027
 Time at end of element matrix formulation CP = 21.34375.                

 ALL CURRENT ANSYS DATA WRITTEN TO FILE NAME= file.rdb
  FOR POSSIBLE RESUME FROM THIS POINT
     FORCE CONVERGENCE VALUE  =  0.6221E-20  CRITERION=  0.1000E-02
     CURRENT CONVERGENCE VALUE=   0.000      CRITERION=   0.000    

 DISTRIBUTED SPARSE MATRIX DIRECT SOLVER.
  Number of equations =       31920,    Maximum wavefront =    460

  Local memory allocated for solver              =    119.783 MB
  Local memory required for in-core solution     =     98.299 MB
  Local memory required for out-of-core solution =     40.842 MB

  Total memory allocated for solver              =    232.195 MB
  Total memory required for in-core solution     =    190.641 MB
  Total memory required for out-of-core solution =     80.105 MB

 *** NOTE ***                            CP =      21.984   TIME= 23:35:27
 The Distributed Sparse Matrix Solver is currently running in the        
 in-core memory mode.  This memory mode uses the most amount of memory   
 in order to avoid using the hard drive as much as possible, which most  
 often results in the fastest solution time.  This mode is recommended   
 if enough physical memory is present to accommodate all of the solver   
 data.                                                                   

 *** WARNING ***                         CP =      21.984   TIME= 23:35:27
 Pivoting has been activated for the Distributed Sparse Matrix Solver .  
 The memory required may greatly exceed the predicted amount.  In that   
 event, use the DSPOPTION command to change the memory mode and/or       
 memory size used by the Distributed Sparse Matrix Solver.               

 *** NOTE ***                            CP =      21.984   TIME= 23:35:27
 The system matrix is unsymmetric.                                       
 curEqn=  16536  totEqn=  16536 Job CP sec=     23.078
      Factor Done=  99% Factor Wall sec=      0.826 rate=    3163.3 Mflops
 Distributed sparse solver maximum pivot= 148175.188 at node 7644 UZ.    
 Distributed sparse solver minimum pivot= 478.731139 at node 1280 UZ.    
 Distributed sparse solver minimum pivot in absolute value= 478.731139   
 at node 1280 UZ.                                                        
    EQUIL ITER   1 COMPLETED.  NEW TRIANG MATRIX.  MAX DOF INC=   4.000    
     FORCE CONVERGENCE VALUE  =  0.1244E-07  CRITERION=  0.1000E-02 <<< CONVERGED

 *** WARNING ***                         CP =      24.078   TIME= 23:35:30
 A reference force value times the tolerance is used by the              
 Newton-Raphson method for checking convergence.  The calculated         
 reference FORCE CONVERGENCE VALUE = 1.244204977E-08 is less than a      
 threshold.  This threshold defaults to 1.0 or is specified as MINREF    
 on the CNVTOL command.  Check results carefully.                        
     CURRENT CONVERGENCE VALUE=   0.000      CRITERION=  0.8915E-25 <<< CONVERGED
     FORCE CONVERGENCE VALUE  =  0.1244E-07  CRITERION=  0.1000E-02 <<< CONVERGED
     CURRENT CONVERGENCE VALUE=   0.000      CRITERION=  0.8915E-25 <<< CONVERGED
    >>> SOLUTION CONVERGED AFTER EQUILIBRIUM ITERATION   2

   *** ELEMENT RESULT CALCULATION TIMES
     TYPE    NUMBER   ENAME      TOTAL CP  AVE CP

        1      5460  SOLID187      1.609   0.000295
        2        24  COMBIN14      0.000   0.000000
        3      1746  TRANS126      0.016   0.000009

   *** NODAL LOAD CALCULATION TIMES
     TYPE    NUMBER   ENAME      TOTAL CP  AVE CP

        1      5460  SOLID187      0.375   0.000069
        2        24  COMBIN14      0.000   0.000000
        3      1746  TRANS126      0.016   0.000009
 *** LOAD STEP     1   SUBSTEP     1  COMPLETED.    CUM ITER =      2
 *** TIME =  0.100000E-08     TIME INC =  0.100000E-08
 *** RESPONSE EIGENVALUE = 0.1553E-06   OSCILLATION LIMIT = 0.1553E-15
 *** AUTO STEP TIME:  NEXT TIME INC = 0.10000E-08  UNCHANGED

     FORCE CONVERGENCE VALUE  =  0.1244E-07  CRITERION=  0.1000E-02
     CURRENT CONVERGENCE VALUE=   0.000      CRITERION=  0.6889E-25
    EQUIL ITER   1 COMPLETED.  NEW TRIANG MATRIX.  MAX DOF INC=  0.1272E-10
     FORCE CONVERGENCE VALUE  =  0.1398E-08  CRITERION=  0.1000E-02 <<< CONVERGED
     CURRENT CONVERGENCE VALUE=   0.000      CRITERION=  0.1605E-12 <<< CONVERGED
    >>> SOLUTION CONVERGED AFTER EQUILIBRIUM ITERATION   1
 *** LOAD STEP     1   SUBSTEP     2  COMPLETED.    CUM ITER =      3
 *** TIME =  0.200000E-08     TIME INC =  0.100000E-08
 *** RESPONSE FREQ = 0.3689E+08   PERIOD=  0.2711E-07  PTS/CYC =  27.    
 *** AUTO TIME STEP:  NEXT TIME INC = 0.13554E-08  INCREASED (FACTOR = 1.3554)

     FORCE CONVERGENCE VALUE  =  0.2411E-07  CRITERION=  0.1000E-02
     CURRENT CONVERGENCE VALUE=   0.000      CRITERION=  0.1371E-12
    EQUIL ITER   1 COMPLETED.  NEW TRIANG MATRIX.  MAX DOF INC=  0.7337E-10
     FORCE CONVERGENCE VALUE  =  0.1728E-09  CRITERION=  0.1000E-02 <<< CONVERGED
     CURRENT CONVERGENCE VALUE=   0.000      CRITERION=  0.5341E-12 <<< CONVERGED
    >>> SOLUTION CONVERGED AFTER EQUILIBRIUM ITERATION   1
 *** LOAD STEP     1   SUBSTEP     3  COMPLETED.    CUM ITER =      4
 *** TIME =  0.335539E-08     TIME INC =  0.135539E-08
 *** RESPONSE FREQ = 0.1867E+08   PERIOD=  0.5357E-07  PTS/CYC =  40.    
 *** AUTO TIME STEP:  NEXT TIME INC = 0.20331E-08  INCREASED (FACTOR = 1.5000)

     FORCE CONVERGENCE VALUE  =  0.3656E-07  CRITERION=  0.1000E-02
     CURRENT CONVERGENCE VALUE=   0.000      CRITERION=  0.4460E-12
    EQUIL ITER   1 COMPLETED.  NEW TRIANG MATRIX.  MAX DOF INC=  0.2603E-09
     FORCE CONVERGENCE VALUE  =  0.4284E-09  CRITERION=  0.1000E-02 <<< CONVERGED
     CURRENT CONVERGENCE VALUE=   0.000      CRITERION=  0.1105E-11 <<< CONVERGED
    >>> SOLUTION CONVERGED AFTER EQUILIBRIUM ITERATION   1
 *** LOAD STEP     1   SUBSTEP     4  COMPLETED.    CUM ITER =      5
 *** TIME =  0.538848E-08     TIME INC =  0.203309E-08
 *** RESPONSE FREQ = 0.1076E+08   PERIOD=  0.9290E-07  PTS/CYC =  46.    
 *** AUTO TIME STEP:  NEXT TIME INC = 0.30496E-08  INCREASED (FACTOR = 1.5000)

     FORCE CONVERGENCE VALUE  =  0.4430E-07  CRITERION=  0.1000E-02
     CURRENT CONVERGENCE VALUE=   0.000      CRITERION=  0.9070E-12
    EQUIL ITER   1 COMPLETED.  NEW TRIANG MATRIX.  MAX DOF INC=  0.7232E-09
     FORCE CONVERGENCE VALUE  =  0.2140E-08  CRITERION=  0.1000E-02 <<< CONVERGED
     CURRENT CONVERGENCE VALUE=   0.000      CRITERION=  0.1967E-11 <<< CONVERGED
    >>> SOLUTION CONVERGED AFTER EQUILIBRIUM ITERATION   1
 *** LOAD STEP     1   SUBSTEP     5  COMPLETED.    CUM ITER =      6
 *** TIME =  0.843811E-08     TIME INC =  0.304963E-08
 *** RESPONSE FREQ = 0.6560E+07   PERIOD=  0.1524E-06  PTS/CYC =  50.    
 *** AUTO TIME STEP:  NEXT TIME INC = 0.45744E-08  INCREASED (FACTOR = 1.5000)

     FORCE CONVERGENCE VALUE  =  0.4866E-07  CRITERION=  0.1000E-02
     CURRENT CONVERGENCE VALUE=   0.000      CRITERION=  0.1603E-11
    EQUIL ITER   1 COMPLETED.  NEW TRIANG MATRIX.  MAX DOF INC=  0.1723E-08
     FORCE CONVERGENCE VALUE  =  0.1223E-07  CRITERION=  0.1000E-02 <<< CONVERGED
     CURRENT CONVERGENCE VALUE=   0.000      CRITERION=  0.3276E-11 <<< CONVERGED
    >>> SOLUTION CONVERGED AFTER EQUILIBRIUM ITERATION   1
 *** LOAD STEP     1   SUBSTEP     6  COMPLETED.    CUM ITER =      7
 *** TIME =  0.130126E-07     TIME INC =  0.457445E-08
 *** RESPONSE FREQ = 0.6419E+07   PERIOD=  0.1558E-06  PTS/CYC =  34.    
 *** AUTO TIME STEP:  NEXT TIME INC = 0.50000E-08  INCREASED (FACTOR = 1.0930)

     FORCE CONVERGENCE VALUE  =  0.6631E-07  CRITERION=  0.1000E-02
     CURRENT CONVERGENCE VALUE=   0.000      CRITERION=  0.2663E-11
    EQUIL ITER   1 COMPLETED.  NEW TRIANG MATRIX.  MAX DOF INC=  0.2740E-08
     FORCE CONVERGENCE VALUE  =  0.3136E-07  CRITERION=  0.1000E-02 <<< CONVERGED
     CURRENT CONVERGENCE VALUE=   0.000      CRITERION=  0.4822E-11 <<< CONVERGED
    >>> SOLUTION CONVERGED AFTER EQUILIBRIUM ITERATION   1
 *** LOAD STEP     1   SUBSTEP     7  COMPLETED.    CUM ITER =      8
 *** TIME =  0.180126E-07     TIME INC =  0.500000E-08
 *** RESPONSE FREQ = 0.6108E+07   PERIOD=  0.1637E-06  PTS/CYC =  33.    
 *** AUTO STEP TIME:  NEXT TIME INC = 0.50000E-08  UNCHANGED

     FORCE CONVERGENCE VALUE  =  0.9146E-07  CRITERION=  0.1000E-02
     CURRENT CONVERGENCE VALUE=   0.000      CRITERION=  0.3883E-11
    EQUIL ITER   1 COMPLETED.  NEW TRIANG MATRIX.  MAX DOF INC=  0.3617E-08
     FORCE CONVERGENCE VALUE  =  0.5519E-07  CRITERION=  0.1000E-02 <<< CONVERGED
     CURRENT CONVERGENCE VALUE=   0.000      CRITERION=  0.6481E-11 <<< CONVERGED
    >>> SOLUTION CONVERGED AFTER EQUILIBRIUM ITERATION   1
 *** LOAD STEP     1   SUBSTEP     8  COMPLETED.    CUM ITER =      9
 *** TIME =  0.230126E-07     TIME INC =  0.500000E-08
 *** RESPONSE FREQ = 0.5895E+07   PERIOD=  0.1696E-06  PTS/CYC =  34.    
 *** AUTO STEP TIME:  NEXT TIME INC = 0.50000E-08  UNCHANGED

     FORCE CONVERGENCE VALUE  =  0.1160E-06  CRITERION=  0.1000E-02
     CURRENT CONVERGENCE VALUE=   0.000      CRITERION=  0.5179E-11
    EQUIL ITER   1 COMPLETED.  NEW TRIANG MATRIX.  MAX DOF INC=  0.4263E-08
     FORCE CONVERGENCE VALUE  =  0.7842E-07  CRITERION=  0.1000E-02 <<< CONVERGED
     CURRENT CONVERGENCE VALUE=   0.000      CRITERION=  0.8255E-11 <<< CONVERGED
    >>> SOLUTION CONVERGED AFTER EQUILIBRIUM ITERATION   1
 *** LOAD STEP     1   SUBSTEP     9  COMPLETED.    CUM ITER =     10
 *** TIME =  0.280126E-07     TIME INC =  0.500000E-08
 *** RESPONSE FREQ = 0.5521E+07   PERIOD=  0.1811E-06  PTS/CYC =  36.    
 *** AUTO STEP TIME:  NEXT TIME INC = 0.50000E-08  UNCHANGED

     FORCE CONVERGENCE VALUE  =  0.1389E-06  CRITERION=  0.1000E-02
     CURRENT CONVERGENCE VALUE=   0.000      CRITERION=  0.6561E-11
    EQUIL ITER   1 COMPLETED.  NEW TRIANG MATRIX.  MAX DOF INC=  0.4791E-08
     FORCE CONVERGENCE VALUE  =  0.9965E-07  CRITERION=  0.1000E-02 <<< CONVERGED
     CURRENT CONVERGENCE VALUE=   0.000      CRITERION=  0.1024E-10 <<< CONVERGED
    >>> SOLUTION CONVERGED AFTER EQUILIBRIUM ITERATION   1
 *** LOAD STEP     1   SUBSTEP    10  COMPLETED.    CUM ITER =     11
 *** TIME =  0.330126E-07     TIME INC =  0.500000E-08
 *** RESPONSE FREQ = 0.5009E+07   PERIOD=  0.1996E-06  PTS/CYC =  40.    
 *** AUTO STEP TIME:  NEXT TIME INC = 0.50000E-08  UNCHANGED

     FORCE CONVERGENCE VALUE  =  0.1601E-06  CRITERION=  0.1000E-02
     CURRENT CONVERGENCE VALUE=   0.000      CRITERION=  0.8110E-11
    EQUIL ITER   1 COMPLETED.  NEW TRIANG MATRIX.  MAX DOF INC=  0.5262E-08
     FORCE CONVERGENCE VALUE  =  0.1202E-06  CRITERION=  0.1000E-02 <<< CONVERGED
     CURRENT CONVERGENCE VALUE=   0.000      CRITERION=  0.1250E-10 <<< CONVERGED
    >>> SOLUTION CONVERGED AFTER EQUILIBRIUM ITERATION   1
 *** LOAD STEP     1   SUBSTEP    11  COMPLETED.    CUM ITER =     12
 *** TIME =  0.380126E-07     TIME INC =  0.500000E-08
 *** RESPONSE FREQ = 0.4187E+07   PERIOD=  0.2388E-06  PTS/CYC =  48.    
 *** AUTO STEP TIME:  NEXT TIME INC = 0.50000E-08  UNCHANGED

     FORCE CONVERGENCE VALUE  =  0.1787E-06  CRITERION=  0.1000E-02
     CURRENT CONVERGENCE VALUE=   0.000      CRITERION=  0.9874E-11
    EQUIL ITER   1 COMPLETED.  NEW TRIANG MATRIX.  MAX DOF INC=  0.5558E-08
     FORCE CONVERGENCE VALUE  =  0.1352E-06  CRITERION=  0.1000E-02 <<< CONVERGED
     CURRENT CONVERGENCE VALUE=   0.000      CRITERION=  0.1518E-10 <<< CONVERGED
    >>> SOLUTION CONVERGED AFTER EQUILIBRIUM ITERATION   1
 *** LOAD STEP     1   SUBSTEP    12  COMPLETED.    CUM ITER =     13
 *** TIME =  0.430126E-07     TIME INC =  0.500000E-08
 *** RESPONSE FREQ = 0.2632E+07   PERIOD=  0.3799E-06  PTS/CYC =  76.    
 *** AUTO STEP TIME:  NEXT TIME INC = 0.50000E-08  UNCHANGED

     FORCE CONVERGENCE VALUE  =  0.1923E-06  CRITERION=  0.1000E-02
     CURRENT CONVERGENCE VALUE=   0.000      CRITERION=  0.1197E-10
    EQUIL ITER   1 COMPLETED.  NEW TRIANG MATRIX.  MAX DOF INC=  0.5783E-08
     FORCE CONVERGENCE VALUE  =  0.1468E-06  CRITERION=  0.1000E-02 <<< CONVERGED
     CURRENT CONVERGENCE VALUE=   0.000      CRITERION=  0.1863E-10 <<< CONVERGED
    >>> SOLUTION CONVERGED AFTER EQUILIBRIUM ITERATION   1
 *** LOAD STEP     1   SUBSTEP    13  COMPLETED.    CUM ITER =     14
 *** TIME =  0.480126E-07     TIME INC =  0.500000E-08
 *** AUTO STEP TIME:  NEXT TIME INC = 0.50000E-08  UNCHANGED

     FORCE CONVERGENCE VALUE  =  0.2044E-06  CRITERION=  0.1000E-02
     CURRENT CONVERGENCE VALUE=   0.000      CRITERION=  0.1468E-10
    EQUIL ITER   1 COMPLETED.  NEW TRIANG MATRIX.  MAX DOF INC=  0.6069E-08
     FORCE CONVERGENCE VALUE  =  0.1613E-06  CRITERION=  0.1000E-02 <<< CONVERGED
     CURRENT CONVERGENCE VALUE=   0.000      CRITERION=  0.2353E-10 <<< CONVERGED
    >>> SOLUTION CONVERGED AFTER EQUILIBRIUM ITERATION   1
 *** LOAD STEP     1   SUBSTEP    14  COMPLETED.    CUM ITER =     15
 *** TIME =  0.530126E-07     TIME INC =  0.500000E-08
 *** AUTO STEP TIME:  NEXT TIME INC = 0.50000E-08  UNCHANGED

     FORCE CONVERGENCE VALUE  =  0.2204E-06  CRITERION=  0.1000E-02
     CURRENT CONVERGENCE VALUE=   0.000      CRITERION=  0.1855E-10
    EQUIL ITER   1 COMPLETED.  NEW TRIANG MATRIX.  MAX DOF INC=  0.6445E-08
     FORCE CONVERGENCE VALUE  =  0.1811E-06  CRITERION=  0.1000E-02 <<< CONVERGED
     CURRENT CONVERGENCE VALUE=   0.000      CRITERION=  0.3149E-10 <<< CONVERGED
    >>> SOLUTION CONVERGED AFTER EQUILIBRIUM ITERATION   1
 *** LOAD STEP     1   SUBSTEP    15  COMPLETED.    CUM ITER =     16
 *** TIME =  0.580126E-07     TIME INC =  0.500000E-08
 *** AUTO STEP TIME:  NEXT TIME INC = 0.50000E-08  UNCHANGED

     FORCE CONVERGENCE VALUE  =  0.2448E-06  CRITERION=  0.1000E-02
     CURRENT CONVERGENCE VALUE=   0.000      CRITERION=  0.2488E-10
    EQUIL ITER   1 COMPLETED.  NEW TRIANG MATRIX.  MAX DOF INC=  0.7126E-08
     FORCE CONVERGENCE VALUE  =  0.2200E-06  CRITERION=  0.1000E-02 <<< CONVERGED
     CURRENT CONVERGENCE VALUE=   0.000      CRITERION=  0.4710E-10 <<< CONVERGED
    >>> SOLUTION CONVERGED AFTER EQUILIBRIUM ITERATION   1
 *** LOAD STEP     1   SUBSTEP    16  COMPLETED.    CUM ITER =     17
 *** TIME =  0.630126E-07     TIME INC =  0.500000E-08
 *** AUTO STEP TIME:  NEXT TIME INC = 0.50000E-08  UNCHANGED

     FORCE CONVERGENCE VALUE  =  0.2944E-06  CRITERION=  0.1000E-02
     CURRENT CONVERGENCE VALUE=   0.000      CRITERION=  0.3738E-10
    EQUIL ITER   1 COMPLETED.  NEW TRIANG MATRIX.  MAX DOF INC=  0.8576E-08
     FORCE CONVERGENCE VALUE  =  0.7265E-04  CRITERION=  0.1000E-02 <<< CONVERGED
     CURRENT CONVERGENCE VALUE=   0.000      CRITERION=  0.1373E-10 <<< CONVERGED
    >>> SOLUTION CONVERGED AFTER EQUILIBRIUM ITERATION   1
 *** LOAD STEP     1   SUBSTEP    17  COMPLETED.    CUM ITER =     18
 *** TIME =  0.680126E-07     TIME INC =  0.500000E-08
 *** RESPONSE FREQ = 0.2019E+10   PERIOD=  0.4954E-09  PTS/CYC = 0.10    
 *** AUTO TIME STEP:  NEXT TIME INC = 0.25000E-08  DECREASED (FACTOR = 0.5000)

     FORCE CONVERGENCE VALUE  =  0.8069E-04  CRITERION=  0.1000E-02
     CURRENT CONVERGENCE VALUE=   0.000      CRITERION=  0.1099E-10
    EQUIL ITER   1 COMPLETED.  NEW TRIANG MATRIX.  MAX DOF INC=  0.2796E-08
     FORCE CONVERGENCE VALUE  =  0.8422E-05  CRITERION=  0.1000E-02 <<< CONVERGED
     CURRENT CONVERGENCE VALUE=   0.000      CRITERION=  0.2428E-10 <<< CONVERGED
    >>> SOLUTION CONVERGED AFTER EQUILIBRIUM ITERATION   1
 *** LOAD STEP     1   SUBSTEP    18  COMPLETED.    CUM ITER =     19
 *** TIME =  0.705126E-07     TIME INC =  0.250000E-08
 *** RESPONSE FREQ = 0.1888E+10   PERIOD=  0.5297E-09  PTS/CYC = 0.21    
 *** AUTO TIME STEP:  NEXT TIME INC = 0.12500E-08  DECREASED (FACTOR = 0.5000)

     FORCE CONVERGENCE VALUE  =  0.3309E-05  CRITERION=  0.1000E-02
     CURRENT CONVERGENCE VALUE=   0.000      CRITERION=  0.2244E-10
    EQUIL ITER   1 COMPLETED.  NEW TRIANG MATRIX.  MAX DOF INC= -0.1132E-08
     FORCE CONVERGENCE VALUE  =  0.2961E-05  CRITERION=  0.1000E-02 <<< CONVERGED
     CURRENT CONVERGENCE VALUE=   0.000      CRITERION=  0.1028E-09 <<< CONVERGED
    >>> SOLUTION CONVERGED AFTER EQUILIBRIUM ITERATION   1
 *** LOAD STEP     1   SUBSTEP    19  COMPLETED.    CUM ITER =     20
 *** TIME =  0.717626E-07     TIME INC =  0.125000E-08
 *** RESPONSE FREQ = 0.3717E+09   PERIOD=  0.2691E-08  PTS/CYC =  2.2    
 *** AUTO TIME STEP:  NEXT TIME INC = 0.62500E-09  DECREASED (FACTOR = 0.5000)

     FORCE CONVERGENCE VALUE  =  0.6331E-05  CRITERION=  0.1000E-02
     CURRENT CONVERGENCE VALUE=   0.000      CRITERION=  0.9978E-10
    EQUIL ITER   1 COMPLETED.  NEW TRIANG MATRIX.  MAX DOF INC=  0.3028E-08
     FORCE CONVERGENCE VALUE  =  0.9288E-04  CRITERION=  0.1000E-02 <<< CONVERGED
     CURRENT CONVERGENCE VALUE=   0.000      CRITERION=  0.8291E-11 <<< CONVERGED
    >>> SOLUTION CONVERGED AFTER EQUILIBRIUM ITERATION   1
 *** LOAD STEP     1   SUBSTEP    20  COMPLETED.    CUM ITER =     21
 *** TIME =  0.723876E-07     TIME INC =  0.625000E-09
 *** RESPONSE FREQ = 0.2078E+10   PERIOD=  0.4813E-09  PTS/CYC = 0.77    
 *** AUTO TIME STEP:  NEXT TIME INC = 0.31250E-09  DECREASED (FACTOR = 0.5000)

     FORCE CONVERGENCE VALUE  =  0.1026E-03  CRITERION=  0.1000E-02
     CURRENT CONVERGENCE VALUE=   0.000      CRITERION=  0.7496E-11
    EQUIL ITER   1 COMPLETED.  NEW TRIANG MATRIX.  MAX DOF INC= -0.2319E-08
     FORCE CONVERGENCE VALUE  =  0.1036E-04  CRITERION=  0.1000E-02 <<< CONVERGED
     CURRENT CONVERGENCE VALUE=   0.000      CRITERION=  0.1758E-10 <<< CONVERGED
    >>> SOLUTION CONVERGED AFTER EQUILIBRIUM ITERATION   1
 *** LOAD STEP     1   SUBSTEP    21  COMPLETED.    CUM ITER =     22
 *** TIME =  0.727001E-07     TIME INC =  0.312500E-09
 *** RESPONSE FREQ = 0.2173E+10   PERIOD=  0.4603E-09  PTS/CYC =  1.5    
 *** AUTO TIME STEP:  NEXT TIME INC = 0.15625E-09  DECREASED (FACTOR = 0.5000)

     FORCE CONVERGENCE VALUE  =  0.8772E-04  CRITERION=  0.1000E-02
     CURRENT CONVERGENCE VALUE=   0.000      CRITERION=  0.1514E-10
    EQUIL ITER   1 COMPLETED.  NEW TRIANG MATRIX.  MAX DOF INC= -0.2263E-08
     FORCE CONVERGENCE VALUE  =  0.3811E-04  CRITERION=  0.1000E-02 <<< CONVERGED
     CURRENT CONVERGENCE VALUE=   0.000      CRITERION=  0.2487E-09 <<< CONVERGED
    >>> SOLUTION CONVERGED AFTER EQUILIBRIUM ITERATION   1
 *** LOAD STEP     1   SUBSTEP    22  COMPLETED.    CUM ITER =     23
 *** TIME =  0.728563E-07     TIME INC =  0.156250E-09
 *** RESPONSE FREQ = 0.5623E+09   PERIOD=  0.1778E-08  PTS/CYC =  11.    
 *** AUTO TIME STEP:  NEXT TIME INC = 0.10000E-09  DECREASED (FACTOR = 0.6400)

     FORCE CONVERGENCE VALUE  =  0.4110E-04  CRITERION=  0.1000E-02
     CURRENT CONVERGENCE VALUE=   0.000      CRITERION=  0.1678E-09
    EQUIL ITER   1 COMPLETED.  NEW TRIANG MATRIX.  MAX DOF INC= -0.7369E-09
     FORCE CONVERGENCE VALUE  =  0.4567E-05  CRITERION=  0.1000E-02 <<< CONVERGED
     CURRENT CONVERGENCE VALUE=   0.000      CRITERION=  0.1912E-09 <<< CONVERGED
    >>> SOLUTION CONVERGED AFTER EQUILIBRIUM ITERATION   1
 *** LOAD STEP     1   SUBSTEP    23  COMPLETED.    CUM ITER =     24
 *** TIME =  0.729563E-07     TIME INC =  0.100000E-09
 *** RESPONSE FREQ = 0.1403E+10   PERIOD=  0.7130E-09  PTS/CYC =  7.1    
 *** AUTO STEP TIME:  NEXT TIME INC = 0.10000E-09  UNCHANGED

     FORCE CONVERGENCE VALUE  =  0.1404E-04  CRITERION=  0.1000E-02
     CURRENT CONVERGENCE VALUE=   0.000      CRITERION=  0.1514E-09
    EQUIL ITER   1 COMPLETED.  NEW TRIANG MATRIX.  MAX DOF INC= -0.3198E-09
     FORCE CONVERGENCE VALUE  =  0.1103E-05  CRITERION=  0.1000E-02 <<< CONVERGED
     CURRENT CONVERGENCE VALUE=   0.000      CRITERION=  0.1116E-09 <<< CONVERGED
    >>> SOLUTION CONVERGED AFTER EQUILIBRIUM ITERATION   1
 *** LOAD STEP     1   SUBSTEP    24  COMPLETED.    CUM ITER =     25
 *** TIME =  0.730563E-07     TIME INC =  0.100000E-09
 *** RESPONSE FREQ = 0.2211E+10   PERIOD=  0.4522E-09  PTS/CYC =  4.5    
 *** AUTO STEP TIME:  NEXT TIME INC = 0.10000E-09  UNCHANGED

     FORCE CONVERGENCE VALUE  =  0.1500E-04  CRITERION=  0.1000E-02
     CURRENT CONVERGENCE VALUE=   0.000      CRITERION=  0.1066E-09
    EQUIL ITER   1 COMPLETED.  NEW TRIANG MATRIX.  MAX DOF INC= -0.2999E-09
     FORCE CONVERGENCE VALUE  =  0.1286E-05  CRITERION=  0.1000E-02 <<< CONVERGED
     CURRENT CONVERGENCE VALUE=   0.000      CRITERION=  0.1039E-09 <<< CONVERGED
    >>> SOLUTION CONVERGED AFTER EQUILIBRIUM ITERATION   1
 *** LOAD STEP     1   SUBSTEP    25  COMPLETED.    CUM ITER =     26
 *** TIME =  0.731563E-07     TIME INC =  0.100000E-09
 *** RESPONSE FREQ = 0.2444E+10   PERIOD=  0.4092E-09  PTS/CYC =  4.1    
 *** AUTO STEP TIME:  NEXT TIME INC = 0.10000E-09  UNCHANGED

     FORCE CONVERGENCE VALUE  =  0.1446E-04  CRITERION=  0.1000E-02
     CURRENT CONVERGENCE VALUE=   0.000      CRITERION=  0.9436E-10
    EQUIL ITER   1 COMPLETED.  NEW TRIANG MATRIX.  MAX DOF INC= -0.2809E-09
     FORCE CONVERGENCE VALUE  =  0.1248E-05  CRITERION=  0.1000E-02 <<< CONVERGED
     CURRENT CONVERGENCE VALUE=   0.000      CRITERION=  0.6261E-10 <<< CONVERGED
    >>> SOLUTION CONVERGED AFTER EQUILIBRIUM ITERATION   1
 *** LOAD STEP     1   SUBSTEP    26  COMPLETED.    CUM ITER =     27
 *** TIME =  0.732563E-07     TIME INC =  0.100000E-09
 *** RESPONSE FREQ = 0.2387E+10   PERIOD=  0.4190E-09  PTS/CYC =  4.2    
 *** AUTO STEP TIME:  NEXT TIME INC = 0.10000E-09  UNCHANGED

     FORCE CONVERGENCE VALUE  =  0.1343E-04  CRITERION=  0.1000E-02
     CURRENT CONVERGENCE VALUE=   0.000      CRITERION=  0.5661E-10
    EQUIL ITER   1 COMPLETED.  NEW TRIANG MATRIX.  MAX DOF INC= -0.3062E-09
     FORCE CONVERGENCE VALUE  =  0.1061E-05  CRITERION=  0.1000E-02 <<< CONVERGED
     CURRENT CONVERGENCE VALUE=   0.000      CRITERION=  0.6627E-10 <<< CONVERGED
    >>> SOLUTION CONVERGED AFTER EQUILIBRIUM ITERATION   1
 *** LOAD STEP     1   SUBSTEP    27  COMPLETED.    CUM ITER =     28
 *** TIME =  0.733563E-07     TIME INC =  0.100000E-09
 *** RESPONSE FREQ = 0.1864E+10   PERIOD=  0.5365E-09  PTS/CYC =  5.4    
 *** AUTO STEP TIME:  NEXT TIME INC = 0.10000E-09  UNCHANGED

     FORCE CONVERGENCE VALUE  =  0.1189E-04  CRITERION=  0.1000E-02
     CURRENT CONVERGENCE VALUE=   0.000      CRITERION=  0.5654E-10
    EQUIL ITER   1 COMPLETED.  NEW TRIANG MATRIX.  MAX DOF INC= -0.3228E-09
     FORCE CONVERGENCE VALUE  =  0.7957E-06  CRITERION=  0.1000E-02 <<< CONVERGED
     CURRENT CONVERGENCE VALUE=   0.000      CRITERION=  0.4020E-10 <<< CONVERGED
    >>> SOLUTION CONVERGED AFTER EQUILIBRIUM ITERATION   1
 *** LOAD STEP     1   SUBSTEP    28  COMPLETED.    CUM ITER =     29
 *** TIME =  0.734563E-07     TIME INC =  0.100000E-09
 *** RESPONSE FREQ = 0.1399E+10   PERIOD=  0.7149E-09  PTS/CYC =  7.1    
 *** AUTO STEP TIME:  NEXT TIME INC = 0.10000E-09  UNCHANGED

     FORCE CONVERGENCE VALUE  =  0.1096E-04  CRITERION=  0.1000E-02
     CURRENT CONVERGENCE VALUE=   0.000      CRITERION=  0.3336E-10
    EQUIL ITER   1 COMPLETED.  NEW TRIANG MATRIX.  MAX DOF INC= -0.3462E-09
     FORCE CONVERGENCE VALUE  =  0.5583E-06  CRITERION=  0.1000E-02 <<< CONVERGED
     CURRENT CONVERGENCE VALUE=   0.000      CRITERION=  0.4511E-10 <<< CONVERGED
    >>> SOLUTION CONVERGED AFTER EQUILIBRIUM ITERATION   1
 *** LOAD STEP     1   SUBSTEP    29  COMPLETED.    CUM ITER =     30
 *** TIME =  0.735563E-07     TIME INC =  0.100000E-09
 *** RESPONSE FREQ = 0.1221E+10   PERIOD=  0.8188E-09  PTS/CYC =  8.2    
 *** AUTO STEP TIME:  NEXT TIME INC = 0.10000E-09  UNCHANGED

     FORCE CONVERGENCE VALUE  =  0.8426E-05  CRITERION=  0.1000E-02
     CURRENT CONVERGENCE VALUE=   0.000      CRITERION=  0.3613E-10
    EQUIL ITER   1 COMPLETED.  NEW TRIANG MATRIX.  MAX DOF INC= -0.2715E-09
     FORCE CONVERGENCE VALUE  =  0.3640E-06  CRITERION=  0.1000E-02 <<< CONVERGED
     CURRENT CONVERGENCE VALUE=   0.000      CRITERION=  0.3155E-10 <<< CONVERGED
    >>> SOLUTION CONVERGED AFTER EQUILIBRIUM ITERATION   1
 *** LOAD STEP     1   SUBSTEP    30  COMPLETED.    CUM ITER =     31
 *** TIME =  0.736563E-07     TIME INC =  0.100000E-09
 *** RESPONSE FREQ = 0.1022E+10   PERIOD=  0.9781E-09  PTS/CYC =  9.8    
 *** AUTO STEP TIME:  NEXT TIME INC = 0.10000E-09  UNCHANGED

     FORCE CONVERGENCE VALUE  =  0.7617E-05  CRITERION=  0.1000E-02
     CURRENT CONVERGENCE VALUE=   0.000      CRITERION=  0.2519E-10
    EQUIL ITER   1 COMPLETED.  NEW TRIANG MATRIX.  MAX DOF INC= -0.2325E-09
     FORCE CONVERGENCE VALUE  =  0.3115E-06  CRITERION=  0.1000E-02 <<< CONVERGED
     CURRENT CONVERGENCE VALUE=   0.000      CRITERION=  0.3138E-10 <<< CONVERGED
    >>> SOLUTION CONVERGED AFTER EQUILIBRIUM ITERATION   1
 *** LOAD STEP     1   SUBSTEP    31  COMPLETED.    CUM ITER =     32
 *** TIME =  0.737563E-07     TIME INC =  0.100000E-09
 *** RESPONSE FREQ = 0.9947E+09   PERIOD=  0.1005E-08  PTS/CYC =  10.    
 *** AUTO STEP TIME:  NEXT TIME INC = 0.10000E-09  UNCHANGED

     FORCE CONVERGENCE VALUE  =  0.7645E-05  CRITERION=  0.1000E-02
     CURRENT CONVERGENCE VALUE=   0.000      CRITERION=  0.2455E-10
    EQUIL ITER   1 COMPLETED.  NEW TRIANG MATRIX.  MAX DOF INC= -0.2695E-09
     FORCE CONVERGENCE VALUE  =  0.3234E-06  CRITERION=  0.1000E-02 <<< CONVERGED
     CURRENT CONVERGENCE VALUE=   0.000      CRITERION=  0.2520E-10 <<< CONVERGED
    >>> SOLUTION CONVERGED AFTER EQUILIBRIUM ITERATION   1
 *** LOAD STEP     1   SUBSTEP    32  COMPLETED.    CUM ITER =     33
 *** TIME =  0.738563E-07     TIME INC =  0.100000E-09
 *** RESPONSE FREQ = 0.9326E+09   PERIOD=  0.1072E-08  PTS/CYC =  11.    
 *** AUTO STEP TIME:  NEXT TIME INC = 0.10000E-09  UNCHANGED

     FORCE CONVERGENCE VALUE  =  0.8604E-05  CRITERION=  0.1000E-02
     CURRENT CONVERGENCE VALUE=   0.000      CRITERION=  0.2008E-10
    EQUIL ITER   1 COMPLETED.  NEW TRIANG MATRIX.  MAX DOF INC= -0.2931E-09
     FORCE CONVERGENCE VALUE  =  0.3479E-06  CRITERION=  0.1000E-02 <<< CONVERGED
     CURRENT CONVERGENCE VALUE=   0.000      CRITERION=  0.2646E-10 <<< CONVERGED
    >>> SOLUTION CONVERGED AFTER EQUILIBRIUM ITERATION   1
 *** LOAD STEP     1   SUBSTEP    33  COMPLETED.    CUM ITER =     34
 *** TIME =  0.739563E-07     TIME INC =  0.100000E-09
 *** RESPONSE FREQ = 0.9770E+09   PERIOD=  0.1024E-08  PTS/CYC =  10.    
 *** AUTO STEP TIME:  NEXT TIME INC = 0.10000E-09  UNCHANGED

     FORCE CONVERGENCE VALUE  =  0.8514E-05  CRITERION=  0.1000E-02
     CURRENT CONVERGENCE VALUE=   0.000      CRITERION=  0.2088E-10
    EQUIL ITER   1 COMPLETED.  NEW TRIANG MATRIX.  MAX DOF INC= -0.3061E-09
     FORCE CONVERGENCE VALUE  =  0.3193E-06  CRITERION=  0.1000E-02 <<< CONVERGED
     CURRENT CONVERGENCE VALUE=   0.000      CRITERION=  0.2470E-10 <<< CONVERGED
    >>> SOLUTION CONVERGED AFTER EQUILIBRIUM ITERATION   1
 *** LOAD STEP     1   SUBSTEP    34  COMPLETED.    CUM ITER =     35
 *** TIME =  0.740563E-07     TIME INC =  0.100000E-09
 *** RESPONSE FREQ = 0.8586E+09   PERIOD=  0.1165E-08  PTS/CYC =  12.    
 *** AUTO STEP TIME:  NEXT TIME INC = 0.10000E-09  UNCHANGED

     FORCE CONVERGENCE VALUE  =  0.8182E-05  CRITERION=  0.1000E-02
     CURRENT CONVERGENCE VALUE=   0.000      CRITERION=  0.1975E-10
    EQUIL ITER   1 COMPLETED.  NEW TRIANG MATRIX.  MAX DOF INC= -0.3522E-09
     FORCE CONVERGENCE VALUE  =  0.2901E-06  CRITERION=  0.1000E-02 <<< CONVERGED
     CURRENT CONVERGENCE VALUE=   0.000      CRITERION=  0.2852E-10 <<< CONVERGED
    >>> SOLUTION CONVERGED AFTER EQUILIBRIUM ITERATION   1
 *** LOAD STEP     1   SUBSTEP    35  COMPLETED.    CUM ITER =     36
 *** TIME =  0.741563E-07     TIME INC =  0.100000E-09
 *** RESPONSE FREQ = 0.8095E+09   PERIOD=  0.1235E-08  PTS/CYC =  12.    
 *** AUTO STEP TIME:  NEXT TIME INC = 0.10000E-09  UNCHANGED

     FORCE CONVERGENCE VALUE  =  0.7536E-05  CRITERION=  0.1000E-02
     CURRENT CONVERGENCE VALUE=   0.000      CRITERION=  0.2274E-10
    EQUIL ITER   1 COMPLETED.  NEW TRIANG MATRIX.  MAX DOF INC= -0.3794E-09
     FORCE CONVERGENCE VALUE  =  0.2085E-06  CRITERION=  0.1000E-02 <<< CONVERGED
     CURRENT CONVERGENCE VALUE=   0.000      CRITERION=  0.2781E-10 <<< CONVERGED
    >>> SOLUTION CONVERGED AFTER EQUILIBRIUM ITERATION   1
 *** LOAD STEP     1   SUBSTEP    36  COMPLETED.    CUM ITER =     37
 *** TIME =  0.742563E-07     TIME INC =  0.100000E-09
 *** RESPONSE FREQ = 0.6459E+09   PERIOD=  0.1548E-08  PTS/CYC =  15.    
 *** AUTO STEP TIME:  NEXT TIME INC = 0.10000E-09  UNCHANGED

     FORCE CONVERGENCE VALUE  =  0.8211E-05  CRITERION=  0.1000E-02
     CURRENT CONVERGENCE VALUE=   0.000      CRITERION=  0.2208E-10
    EQUIL ITER   1 COMPLETED.  NEW TRIANG MATRIX.  MAX DOF INC= -0.3804E-09
     FORCE CONVERGENCE VALUE  =  0.1622E-06  CRITERION=  0.1000E-02 <<< CONVERGED
     CURRENT CONVERGENCE VALUE=   0.000      CRITERION=  0.3036E-10 <<< CONVERGED
    >>> SOLUTION CONVERGED AFTER EQUILIBRIUM ITERATION   1
 *** LOAD STEP     1   SUBSTEP    37  COMPLETED.    CUM ITER =     38
 *** TIME =  0.743563E-07     TIME INC =  0.100000E-09
 *** RESPONSE FREQ = 0.6744E+09   PERIOD=  0.1483E-08  PTS/CYC =  15.    
 *** AUTO STEP TIME:  NEXT TIME INC = 0.10000E-09  UNCHANGED

     FORCE CONVERGENCE VALUE  =  0.8588E-05  CRITERION=  0.1000E-02
     CURRENT CONVERGENCE VALUE=   0.000      CRITERION=  0.2425E-10
    EQUIL ITER   1 COMPLETED.  NEW TRIANG MATRIX.  MAX DOF INC= -0.3707E-09
     FORCE CONVERGENCE VALUE  =  0.1181E-06  CRITERION=  0.1000E-02 <<< CONVERGED
     CURRENT CONVERGENCE VALUE=   0.000      CRITERION=  0.2807E-10 <<< CONVERGED
    >>> SOLUTION CONVERGED AFTER EQUILIBRIUM ITERATION   1
 *** LOAD STEP     1   SUBSTEP    38  COMPLETED.    CUM ITER =     39
 *** TIME =  0.744563E-07     TIME INC =  0.100000E-09
 *** RESPONSE FREQ = 0.6931E+09   PERIOD=  0.1443E-08  PTS/CYC =  14.    
 *** AUTO STEP TIME:  NEXT TIME INC = 0.10000E-09  UNCHANGED

     FORCE CONVERGENCE VALUE  =  0.8391E-05  CRITERION=  0.1000E-02
     CURRENT CONVERGENCE VALUE=   0.000      CRITERION=  0.2217E-10
    EQUIL ITER   1 COMPLETED.  NEW TRIANG MATRIX.  MAX DOF INC= -0.3717E-09
     FORCE CONVERGENCE VALUE  =  0.9125E-07  CRITERION=  0.1000E-02 <<< CONVERGED
     CURRENT CONVERGENCE VALUE=   0.000      CRITERION=  0.3134E-10 <<< CONVERGED
    >>> SOLUTION CONVERGED AFTER EQUILIBRIUM ITERATION   1
 *** LOAD STEP     1   SUBSTEP    39  COMPLETED.    CUM ITER =     40
 *** TIME =  0.745563E-07     TIME INC =  0.100000E-09
 *** RESPONSE FREQ = 0.6517E+09   PERIOD=  0.1535E-08  PTS/CYC =  15.    
 *** AUTO STEP TIME:  NEXT TIME INC = 0.10000E-09  UNCHANGED

     FORCE CONVERGENCE VALUE  =  0.7941E-05  CRITERION=  0.1000E-02
     CURRENT CONVERGENCE VALUE=   0.000      CRITERION=  0.2494E-10
    EQUIL ITER   1 COMPLETED.  NEW TRIANG MATRIX.  MAX DOF INC= -0.3640E-09
     FORCE CONVERGENCE VALUE  =  0.8272E-07  CRITERION=  0.1000E-02 <<< CONVERGED
     CURRENT CONVERGENCE VALUE=   0.000      CRITERION=  0.2844E-10 <<< CONVERGED
    >>> SOLUTION CONVERGED AFTER EQUILIBRIUM ITERATION   1
 *** LOAD STEP     1   SUBSTEP    40  COMPLETED.    CUM ITER =     41
 *** TIME =  0.746563E-07     TIME INC =  0.100000E-09
 *** RESPONSE FREQ = 0.5485E+09   PERIOD=  0.1823E-08  PTS/CYC =  18.    
 *** AUTO STEP TIME:  NEXT TIME INC = 0.10000E-09  UNCHANGED

     FORCE CONVERGENCE VALUE  =  0.7686E-05  CRITERION=  0.1000E-02
     CURRENT CONVERGENCE VALUE=   0.000      CRITERION=  0.2236E-10
    EQUIL ITER   1 COMPLETED.  NEW TRIANG MATRIX.  MAX DOF INC= -0.3460E-09
     FORCE CONVERGENCE VALUE  =  0.8024E-07  CRITERION=  0.1000E-02 <<< CONVERGED
     CURRENT CONVERGENCE VALUE=   0.000      CRITERION=  0.3022E-10 <<< CONVERGED
    >>> SOLUTION CONVERGED AFTER EQUILIBRIUM ITERATION   1
 *** LOAD STEP     1   SUBSTEP    41  COMPLETED.    CUM ITER =     42
 *** TIME =  0.747563E-07     TIME INC =  0.100000E-09
 *** RESPONSE FREQ = 0.4967E+09   PERIOD=  0.2013E-08  PTS/CYC =  20.    
 *** AUTO TIME STEP:  NEXT TIME INC = 0.10066E-09  INCREASED (FACTOR = 1.0066)

     FORCE CONVERGENCE VALUE  =  0.7970E-05  CRITERION=  0.1000E-02
     CURRENT CONVERGENCE VALUE=   0.000      CRITERION=  0.2390E-10
    EQUIL ITER   1 COMPLETED.  NEW TRIANG MATRIX.  MAX DOF INC= -0.4109E-09
     FORCE CONVERGENCE VALUE  =  0.8605E-07  CRITERION=  0.1000E-02 <<< CONVERGED
     CURRENT CONVERGENCE VALUE=   0.000      CRITERION=  0.2777E-10 <<< CONVERGED
    >>> SOLUTION CONVERGED AFTER EQUILIBRIUM ITERATION   1
 *** LOAD STEP     1   SUBSTEP    42  COMPLETED.    CUM ITER =     43
 *** TIME =  0.748570E-07     TIME INC =  0.100661E-09
 *** RESPONSE FREQ = 0.5758E+09   PERIOD=  0.1737E-08  PTS/CYC =  17.    
 *** AUTO TIME STEP:  NEXT TIME INC = 0.10000E-09  DECREASED (FACTOR = 0.9934)

     FORCE CONVERGENCE VALUE  =  0.8344E-05  CRITERION=  0.1000E-02
     CURRENT CONVERGENCE VALUE=   0.000      CRITERION=  0.2179E-10
    EQUIL ITER   1 COMPLETED.  NEW TRIANG MATRIX.  MAX DOF INC= -0.4447E-09
     FORCE CONVERGENCE VALUE  =  0.8411E-07  CRITERION=  0.1000E-02 <<< CONVERGED
     CURRENT CONVERGENCE VALUE=   0.000      CRITERION=  0.2665E-10 <<< CONVERGED
    >>> SOLUTION CONVERGED AFTER EQUILIBRIUM ITERATION   1
 *** LOAD STEP     1   SUBSTEP    43  COMPLETED.    CUM ITER =     44
 *** TIME =  0.749570E-07     TIME INC =  0.100000E-09
 *** RESPONSE FREQ = 0.6294E+09   PERIOD=  0.1589E-08  PTS/CYC =  16.    
 *** AUTO STEP TIME:  NEXT TIME INC = 0.10000E-09  UNCHANGED

     FORCE CONVERGENCE VALUE  =  0.7976E-05  CRITERION=  0.1000E-02
     CURRENT CONVERGENCE VALUE=   0.000      CRITERION=  0.2087E-10
    EQUIL ITER   1 COMPLETED.  NEW TRIANG MATRIX.  MAX DOF INC= -0.4131E-09
     FORCE CONVERGENCE VALUE  =  0.7158E-07  CRITERION=  0.1000E-02 <<< CONVERGED
     CURRENT CONVERGENCE VALUE=   0.000      CRITERION=  0.2359E-10 <<< CONVERGED
    >>> SOLUTION CONVERGED AFTER EQUILIBRIUM ITERATION   1
 *** LOAD STEP     1   SUBSTEP    44  COMPLETED.    CUM ITER =     45
 *** TIME =  0.750570E-07     TIME INC =  0.100000E-09
 *** RESPONSE FREQ = 0.5739E+09   PERIOD=  0.1742E-08  PTS/CYC =  17.    
 *** AUTO STEP TIME:  NEXT TIME INC = 0.10000E-09  UNCHANGED

     FORCE CONVERGENCE VALUE  =  0.7327E-05  CRITERION=  0.1000E-02
     CURRENT CONVERGENCE VALUE=   0.000      CRITERION=  0.1846E-10
    EQUIL ITER   1 COMPLETED.  NEW TRIANG MATRIX.  MAX DOF INC= -0.3554E-09
     FORCE CONVERGENCE VALUE  =  0.5757E-07  CRITERION=  0.1000E-02 <<< CONVERGED
     CURRENT CONVERGENCE VALUE=   0.000      CRITERION=  0.2280E-10 <<< CONVERGED
    >>> SOLUTION CONVERGED AFTER EQUILIBRIUM ITERATION   1
 *** LOAD STEP     1   SUBSTEP    45  COMPLETED.    CUM ITER =     46
 *** TIME =  0.751570E-07     TIME INC =  0.100000E-09
 *** RESPONSE FREQ = 0.4821E+09   PERIOD=  0.2074E-08  PTS/CYC =  21.    
 *** AUTO TIME STEP:  NEXT TIME INC = 0.10371E-09  INCREASED (FACTOR = 1.0371)

     FORCE CONVERGENCE VALUE  =  0.6800E-05  CRITERION=  0.1000E-02
     CURRENT CONVERGENCE VALUE=   0.000      CRITERION=  0.1794E-10
    EQUIL ITER   1 COMPLETED.  NEW TRIANG MATRIX.  MAX DOF INC= -0.3076E-09
     FORCE CONVERGENCE VALUE  =  0.5421E-07  CRITERION=  0.1000E-02 <<< CONVERGED
     CURRENT CONVERGENCE VALUE=   0.000      CRITERION=  0.2327E-10 <<< CONVERGED
    >>> SOLUTION CONVERGED AFTER EQUILIBRIUM ITERATION   1
 *** LOAD STEP     1   SUBSTEP    46  COMPLETED.    CUM ITER =     47
 *** TIME =  0.752607E-07     TIME INC =  0.103711E-09
 *** RESPONSE FREQ = 0.4396E+09   PERIOD=  0.2275E-08  PTS/CYC =  22.    
 *** AUTO TIME STEP:  NEXT TIME INC = 0.11374E-09  INCREASED (FACTOR = 1.0967)

     FORCE CONVERGENCE VALUE  =  0.6474E-05  CRITERION=  0.1000E-02
     CURRENT CONVERGENCE VALUE=   0.000      CRITERION=  0.1851E-10
    EQUIL ITER   1 COMPLETED.  NEW TRIANG MATRIX.  MAX DOF INC= -0.3258E-09
     FORCE CONVERGENCE VALUE  =  0.5366E-07  CRITERION=  0.1000E-02 <<< CONVERGED
     CURRENT CONVERGENCE VALUE=   0.000      CRITERION=  0.2667E-10 <<< CONVERGED
    >>> SOLUTION CONVERGED AFTER EQUILIBRIUM ITERATION   1
 *** LOAD STEP     1   SUBSTEP    47  COMPLETED.    CUM ITER =     48
 *** TIME =  0.753744E-07     TIME INC =  0.113742E-09
 *** RESPONSE FREQ = 0.4936E+09   PERIOD=  0.2026E-08  PTS/CYC =  18.    
 *** AUTO TIME STEP:  NEXT TIME INC = 0.10130E-09  DECREASED (FACTOR = 0.8906)

     FORCE CONVERGENCE VALUE  =  0.7741E-05  CRITERION=  0.1000E-02
     CURRENT CONVERGENCE VALUE=   0.000      CRITERION=  0.2132E-10
    EQUIL ITER   1 COMPLETED.  NEW TRIANG MATRIX.  MAX DOF INC= -0.2809E-09
     FORCE CONVERGENCE VALUE  =  0.5500E-07  CRITERION=  0.1000E-02 <<< CONVERGED
     CURRENT CONVERGENCE VALUE=   0.000      CRITERION=  0.2979E-10 <<< CONVERGED
    >>> SOLUTION CONVERGED AFTER EQUILIBRIUM ITERATION   1
 *** LOAD STEP     1   SUBSTEP    48  COMPLETED.    CUM ITER =     49
 *** TIME =  0.754757E-07     TIME INC =  0.101296E-09
 *** RESPONSE FREQ = 0.5531E+09   PERIOD=  0.1808E-08  PTS/CYC =  18.    
 *** AUTO TIME STEP:  NEXT TIME INC = 0.10000E-09  DECREASED (FACTOR = 0.9872)

     FORCE CONVERGENCE VALUE  =  0.7867E-05  CRITERION=  0.1000E-02
     CURRENT CONVERGENCE VALUE=   0.000      CRITERION=  0.2368E-10
    EQUIL ITER   1 COMPLETED.  NEW TRIANG MATRIX.  MAX DOF INC= -0.2903E-09
     FORCE CONVERGENCE VALUE  =  0.5911E-07  CRITERION=  0.1000E-02 <<< CONVERGED
     CURRENT CONVERGENCE VALUE=   0.000      CRITERION=  0.3068E-10 <<< CONVERGED
    >>> SOLUTION CONVERGED AFTER EQUILIBRIUM ITERATION   1
 *** LOAD STEP     1   SUBSTEP    49  COMPLETED.    CUM ITER =     50
 *** TIME =  0.755757E-07     TIME INC =  0.100000E-09
 *** RESPONSE FREQ = 0.5584E+09   PERIOD=  0.1791E-08  PTS/CYC =  18.    
 *** AUTO STEP TIME:  NEXT TIME INC = 0.10000E-09  UNCHANGED

     FORCE CONVERGENCE VALUE  =  0.7341E-05  CRITERION=  0.1000E-02
     CURRENT CONVERGENCE VALUE=   0.000      CRITERION=  0.2417E-10
    EQUIL ITER   1 COMPLETED.  NEW TRIANG MATRIX.  MAX DOF INC= -0.2874E-09
     FORCE CONVERGENCE VALUE  =  0.4413E-07  CRITERION=  0.1000E-02 <<< CONVERGED
     CURRENT CONVERGENCE VALUE=   0.000      CRITERION=  0.2895E-10 <<< CONVERGED
    >>> SOLUTION CONVERGED AFTER EQUILIBRIUM ITERATION   1
 *** LOAD STEP     1   SUBSTEP    50  COMPLETED.    CUM ITER =     51
 *** TIME =  0.756757E-07     TIME INC =  0.100000E-09
 *** RESPONSE FREQ = 0.4838E+09   PERIOD=  0.2067E-08  PTS/CYC =  21.    
 *** AUTO TIME STEP:  NEXT TIME INC = 0.10335E-09  INCREASED (FACTOR = 1.0335)

     FORCE CONVERGENCE VALUE  =  0.6673E-05  CRITERION=  0.1000E-02
     CURRENT CONVERGENCE VALUE=   0.000      CRITERION=  0.2265E-10
    EQUIL ITER   1 COMPLETED.  NEW TRIANG MATRIX.  MAX DOF INC= -0.2718E-09
     FORCE CONVERGENCE VALUE  =  0.3998E-07  CRITERION=  0.1000E-02 <<< CONVERGED
     CURRENT CONVERGENCE VALUE=   0.000      CRITERION=  0.2618E-10 <<< CONVERGED
    >>> SOLUTION CONVERGED AFTER EQUILIBRIUM ITERATION   1
 *** LOAD STEP     1   SUBSTEP    51  COMPLETED.    CUM ITER =     52
 *** TIME =  0.757791E-07     TIME INC =  0.103354E-09
 *** RESPONSE FREQ = 0.3961E+09   PERIOD=  0.2525E-08  PTS/CYC =  24.    
 *** AUTO TIME STEP:  NEXT TIME INC = 0.12623E-09  INCREASED (FACTOR = 1.2213)

     FORCE CONVERGENCE VALUE  =  0.5521E-05  CRITERION=  0.1000E-02
     CURRENT CONVERGENCE VALUE=   0.000      CRITERION=  0.2045E-10
    EQUIL ITER   1 COMPLETED.  NEW TRIANG MATRIX.  MAX DOF INC= -0.4010E-09
     FORCE CONVERGENCE VALUE  =  0.4701E-07  CRITERION=  0.1000E-02 <<< CONVERGED
     CURRENT CONVERGENCE VALUE=   0.000      CRITERION=  0.2393E-10 <<< CONVERGED
    >>> SOLUTION CONVERGED AFTER EQUILIBRIUM ITERATION   1
 *** LOAD STEP     1   SUBSTEP    52  COMPLETED.    CUM ITER =     53
 *** TIME =  0.759053E-07     TIME INC =  0.126227E-09
 *** RESPONSE FREQ = 0.4414E+09   PERIOD=  0.2265E-08  PTS/CYC =  18.    
 *** AUTO TIME STEP:  NEXT TIME INC = 0.11326E-09  DECREASED (FACTOR = 0.8973)

     FORCE CONVERGENCE VALUE  =  0.6281E-05  CRITERION=  0.1000E-02
     CURRENT CONVERGENCE VALUE=   0.000      CRITERION=  0.1881E-10
    EQUIL ITER   1 COMPLETED.  NEW TRIANG MATRIX.  MAX DOF INC= -0.4104E-09
     FORCE CONVERGENCE VALUE  =  0.5507E-07  CRITERION=  0.1000E-02 <<< CONVERGED
     CURRENT CONVERGENCE VALUE=   0.000      CRITERION=  0.2404E-10 <<< CONVERGED
    >>> SOLUTION CONVERGED AFTER EQUILIBRIUM ITERATION   1
 *** LOAD STEP     1   SUBSTEP    53  COMPLETED.    CUM ITER =     54
 *** TIME =  0.760186E-07     TIME INC =  0.113264E-09
 *** RESPONSE FREQ = 0.5467E+09   PERIOD=  0.1829E-08  PTS/CYC =  16.    
 *** AUTO TIME STEP:  NEXT TIME INC = 0.10000E-09  DECREASED (FACTOR = 0.8829)

     FORCE CONVERGENCE VALUE  =  0.6757E-05  CRITERION=  0.1000E-02
     CURRENT CONVERGENCE VALUE=   0.000      CRITERION=  0.1901E-10
    EQUIL ITER   1 COMPLETED.  NEW TRIANG MATRIX.  MAX DOF INC= -0.3609E-09
     FORCE CONVERGENCE VALUE  =  0.4729E-07  CRITERION=  0.1000E-02 <<< CONVERGED
     CURRENT CONVERGENCE VALUE=   0.000      CRITERION=  0.2451E-10 <<< CONVERGED
    >>> SOLUTION CONVERGED AFTER EQUILIBRIUM ITERATION   1
 *** LOAD STEP     1   SUBSTEP    54  COMPLETED.    CUM ITER =     55
 *** TIME =  0.761186E-07     TIME INC =  0.100000E-09
 *** RESPONSE FREQ = 0.5355E+09   PERIOD=  0.1867E-08  PTS/CYC =  19.    
 *** AUTO STEP TIME:  NEXT TIME INC = 0.10000E-09  UNCHANGED

     FORCE CONVERGENCE VALUE  =  0.6178E-05  CRITERION=  0.1000E-02
     CURRENT CONVERGENCE VALUE=   0.000      CRITERION=  0.1935E-10
    EQUIL ITER   1 COMPLETED.  NEW TRIANG MATRIX.  MAX DOF INC= -0.3116E-09
     FORCE CONVERGENCE VALUE  =  0.3318E-07  CRITERION=  0.1000E-02 <<< CONVERGED
     CURRENT CONVERGENCE VALUE=   0.000      CRITERION=  0.2426E-10 <<< CONVERGED
    >>> SOLUTION CONVERGED AFTER EQUILIBRIUM ITERATION   1
 *** LOAD STEP     1   SUBSTEP    55  COMPLETED.    CUM ITER =     56
 *** TIME =  0.762186E-07     TIME INC =  0.100000E-09
 *** RESPONSE FREQ = 0.4476E+09   PERIOD=  0.2234E-08  PTS/CYC =  22.    
 *** AUTO TIME STEP:  NEXT TIME INC = 0.11171E-09  INCREASED (FACTOR = 1.1171)

     FORCE CONVERGENCE VALUE  =  0.5340E-05  CRITERION=  0.1000E-02
     CURRENT CONVERGENCE VALUE=   0.000      CRITERION=  0.1908E-10
    EQUIL ITER   1 COMPLETED.  NEW TRIANG MATRIX.  MAX DOF INC= -0.2928E-09
     FORCE CONVERGENCE VALUE  =  0.3470E-07  CRITERION=  0.1000E-02 <<< CONVERGED
     CURRENT CONVERGENCE VALUE=   0.000      CRITERION=  0.2300E-10 <<< CONVERGED
    >>> SOLUTION CONVERGED AFTER EQUILIBRIUM ITERATION   1
 *** LOAD STEP     1   SUBSTEP    56  COMPLETED.    CUM ITER =     57
 *** TIME =  0.763303E-07     TIME INC =  0.111710E-09
 *** RESPONSE FREQ = 0.4335E+09   PERIOD=  0.2307E-08  PTS/CYC =  21.    
 *** AUTO TIME STEP:  NEXT TIME INC = 0.11535E-09  INCREASED (FACTOR = 1.0326)

     FORCE CONVERGENCE VALUE  =  0.5364E-05  CRITERION=  0.1000E-02
     CURRENT CONVERGENCE VALUE=   0.000      CRITERION=  0.1807E-10
    EQUIL ITER   1 COMPLETED.  NEW TRIANG MATRIX.  MAX DOF INC= -0.3431E-09
     FORCE CONVERGENCE VALUE  =  0.4570E-07  CRITERION=  0.1000E-02 <<< CONVERGED
     CURRENT CONVERGENCE VALUE=   0.000      CRITERION=  0.2252E-10 <<< CONVERGED
    >>> SOLUTION CONVERGED AFTER EQUILIBRIUM ITERATION   1
 *** LOAD STEP     1   SUBSTEP    57  COMPLETED.    CUM ITER =     58
 *** TIME =  0.764456E-07     TIME INC =  0.115349E-09
 *** RESPONSE FREQ = 0.5234E+09   PERIOD=  0.1910E-08  PTS/CYC =  17.    
 *** AUTO TIME STEP:  NEXT TIME INC = 0.10000E-09  DECREASED (FACTOR = 0.8669)

     FORCE CONVERGENCE VALUE  =  0.6133E-05  CRITERION=  0.1000E-02
     CURRENT CONVERGENCE VALUE=   0.000      CRITERION=  0.1778E-10
    EQUIL ITER   1 COMPLETED.  NEW TRIANG MATRIX.  MAX DOF INC= -0.3097E-09
     FORCE CONVERGENCE VALUE  =  0.3913E-07  CRITERION=  0.1000E-02 <<< CONVERGED
     CURRENT CONVERGENCE VALUE=   0.000      CRITERION=  0.2313E-10 <<< CONVERGED
    >>> SOLUTION CONVERGED AFTER EQUILIBRIUM ITERATION   1
 *** LOAD STEP     1   SUBSTEP    58  COMPLETED.    CUM ITER =     59
 *** TIME =  0.765456E-07     TIME INC =  0.100000E-09
 *** RESPONSE FREQ = 0.5586E+09   PERIOD=  0.1790E-08  PTS/CYC =  18.    
 *** AUTO STEP TIME:  NEXT TIME INC = 0.10000E-09  UNCHANGED

     FORCE CONVERGENCE VALUE  =  0.5789E-05  CRITERION=  0.1000E-02
     CURRENT CONVERGENCE VALUE=   0.000      CRITERION=  0.1830E-10
    EQUIL ITER   1 COMPLETED.  NEW TRIANG MATRIX.  MAX DOF INC= -0.2909E-09
     FORCE CONVERGENCE VALUE  =  0.3240E-07  CRITERION=  0.1000E-02 <<< CONVERGED
     CURRENT CONVERGENCE VALUE=   0.000      CRITERION=  0.2427E-10 <<< CONVERGED
    >>> SOLUTION CONVERGED AFTER EQUILIBRIUM ITERATION   1
 *** LOAD STEP     1   SUBSTEP    59  COMPLETED.    CUM ITER =     60
 *** TIME =  0.766456E-07     TIME INC =  0.100000E-09
 *** RESPONSE FREQ = 0.5040E+09   PERIOD=  0.1984E-08  PTS/CYC =  20.    
 *** AUTO STEP TIME:  NEXT TIME INC = 0.10000E-09  UNCHANGED

     FORCE CONVERGENCE VALUE  =  0.5470E-05  CRITERION=  0.1000E-02
     CURRENT CONVERGENCE VALUE=   0.000      CRITERION=  0.1921E-10
    EQUIL ITER   1 COMPLETED.  NEW TRIANG MATRIX.  MAX DOF INC= -0.2413E-09
     FORCE CONVERGENCE VALUE  =  0.2471E-07  CRITERION=  0.1000E-02 <<< CONVERGED
     CURRENT CONVERGENCE VALUE=   0.000      CRITERION=  0.2535E-10 <<< CONVERGED
    >>> SOLUTION CONVERGED AFTER EQUILIBRIUM ITERATION   1
 *** LOAD STEP     1   SUBSTEP    60  COMPLETED.    CUM ITER =     61
 *** TIME =  0.767456E-07     TIME INC =  0.100000E-09
 *** RESPONSE FREQ = 0.4269E+09   PERIOD=  0.2343E-08  PTS/CYC =  23.    
 *** AUTO TIME STEP:  NEXT TIME INC = 0.11713E-09  INCREASED (FACTOR = 1.1713)

     FORCE CONVERGENCE VALUE  =  0.4746E-05  CRITERION=  0.1000E-02
     CURRENT CONVERGENCE VALUE=   0.000      CRITERION=  0.2003E-10
    EQUIL ITER   1 COMPLETED.  NEW TRIANG MATRIX.  MAX DOF INC= -0.2442E-09
     FORCE CONVERGENCE VALUE  =  0.2966E-07  CRITERION=  0.1000E-02 <<< CONVERGED
     CURRENT CONVERGENCE VALUE=   0.000      CRITERION=  0.2574E-10 <<< CONVERGED
    >>> SOLUTION CONVERGED AFTER EQUILIBRIUM ITERATION   1
 *** LOAD STEP     1   SUBSTEP    61  COMPLETED.    CUM ITER =     62
 *** TIME =  0.768628E-07     TIME INC =  0.117131E-09
 *** RESPONSE FREQ = 0.4828E+09   PERIOD=  0.2071E-08  PTS/CYC =  18.    
 *** AUTO TIME STEP:  NEXT TIME INC = 0.10355E-09  DECREASED (FACTOR = 0.8841)

     FORCE CONVERGENCE VALUE  =  0.5518E-05  CRITERION=  0.1000E-02
     CURRENT CONVERGENCE VALUE=   0.000      CRITERION=  0.2029E-10
    EQUIL ITER   1 COMPLETED.  NEW TRIANG MATRIX.  MAX DOF INC= -0.2222E-09
     FORCE CONVERGENCE VALUE  =  0.3780E-07  CRITERION=  0.1000E-02 <<< CONVERGED
     CURRENT CONVERGENCE VALUE=   0.000      CRITERION=  0.2458E-10 <<< CONVERGED
    >>> SOLUTION CONVERGED AFTER EQUILIBRIUM ITERATION   1
 *** LOAD STEP     1   SUBSTEP    62  COMPLETED.    CUM ITER =     63
 *** TIME =  0.769663E-07     TIME INC =  0.103552E-09
 *** RESPONSE FREQ = 0.6046E+09   PERIOD=  0.1654E-08  PTS/CYC =  16.    
 *** AUTO TIME STEP:  NEXT TIME INC = 0.10000E-09  DECREASED (FACTOR = 0.9657)

     FORCE CONVERGENCE VALUE  =  0.5359E-05  CRITERION=  0.1000E-02
     CURRENT CONVERGENCE VALUE=   0.000      CRITERION=  0.1924E-10
    EQUIL ITER   1 COMPLETED.  NEW TRIANG MATRIX.  MAX DOF INC= -0.2068E-09
     FORCE CONVERGENCE VALUE  =  0.3688E-07  CRITERION=  0.1000E-02 <<< CONVERGED
     CURRENT CONVERGENCE VALUE=   0.000      CRITERION=  0.2181E-10 <<< CONVERGED
    >>> SOLUTION CONVERGED AFTER EQUILIBRIUM ITERATION   1
 *** LOAD STEP     1   SUBSTEP    63  COMPLETED.    CUM ITER =     64
 *** TIME =  0.770663E-07     TIME INC =  0.100000E-09
 *** RESPONSE FREQ = 0.6263E+09   PERIOD=  0.1597E-08  PTS/CYC =  16.    
 *** AUTO STEP TIME:  NEXT TIME INC = 0.10000E-09  UNCHANGED

     FORCE CONVERGENCE VALUE  =  0.4505E-05  CRITERION=  0.1000E-02
     CURRENT CONVERGENCE VALUE=   0.000      CRITERION=  0.1696E-10
    EQUIL ITER   1 COMPLETED.  NEW TRIANG MATRIX.  MAX DOF INC= -0.2018E-09
     FORCE CONVERGENCE VALUE  =  0.2488E-07  CRITERION=  0.1000E-02 <<< CONVERGED
     CURRENT CONVERGENCE VALUE=   0.000      CRITERION=  0.1848E-10 <<< CONVERGED
    >>> SOLUTION CONVERGED AFTER EQUILIBRIUM ITERATION   1
 *** LOAD STEP     1   SUBSTEP    64  COMPLETED.    CUM ITER =     65
 *** TIME =  0.771663E-07     TIME INC =  0.100000E-09
 *** RESPONSE FREQ = 0.5278E+09   PERIOD=  0.1895E-08  PTS/CYC =  19.    
 *** AUTO STEP TIME:  NEXT TIME INC = 0.10000E-09  UNCHANGED

     FORCE CONVERGENCE VALUE  =  0.3819E-05  CRITERION=  0.1000E-02
     CURRENT CONVERGENCE VALUE=   0.000      CRITERION=  0.1435E-10
    EQUIL ITER   1 COMPLETED.  NEW TRIANG MATRIX.  MAX DOF INC= -0.2001E-09
     FORCE CONVERGENCE VALUE  =  0.1677E-07  CRITERION=  0.1000E-02 <<< CONVERGED
     CURRENT CONVERGENCE VALUE=   0.000      CRITERION=  0.1662E-10 <<< CONVERGED
    >>> SOLUTION CONVERGED AFTER EQUILIBRIUM ITERATION   1
 *** LOAD STEP     1   SUBSTEP    65  COMPLETED.    CUM ITER =     66
 *** TIME =  0.772663E-07     TIME INC =  0.100000E-09
 *** RESPONSE FREQ = 0.4140E+09   PERIOD=  0.2416E-08  PTS/CYC =  24.    
 *** AUTO TIME STEP:  NEXT TIME INC = 0.12078E-09  INCREASED (FACTOR = 1.2078)

     FORCE CONVERGENCE VALUE  =  0.3299E-05  CRITERION=  0.1000E-02
     CURRENT CONVERGENCE VALUE=   0.000      CRITERION=  0.1304E-10
    EQUIL ITER   1 COMPLETED.  NEW TRIANG MATRIX.  MAX DOF INC= -0.2149E-09
     FORCE CONVERGENCE VALUE  =  0.2879E-07  CRITERION=  0.1000E-02 <<< CONVERGED
     CURRENT CONVERGENCE VALUE=   0.000      CRITERION=  0.1741E-10 <<< CONVERGED
    >>> SOLUTION CONVERGED AFTER EQUILIBRIUM ITERATION   1
 *** LOAD STEP     1   SUBSTEP    66  COMPLETED.    CUM ITER =     67
 *** TIME =  0.773871E-07     TIME INC =  0.120783E-09
 *** RESPONSE FREQ = 0.5694E+09   PERIOD=  0.1756E-08  PTS/CYC =  15.    
 *** AUTO TIME STEP:  NEXT TIME INC = 0.10000E-09  DECREASED (FACTOR = 0.8279)

     FORCE CONVERGENCE VALUE  =  0.4417E-05  CRITERION=  0.1000E-02
     CURRENT CONVERGENCE VALUE=   0.000      CRITERION=  0.1389E-10
    EQUIL ITER   1 COMPLETED.  NEW TRIANG MATRIX.  MAX DOF INC= -0.1548E-09
     FORCE CONVERGENCE VALUE  =  0.3157E-07  CRITERION=  0.1000E-02 <<< CONVERGED
     CURRENT CONVERGENCE VALUE=   0.000      CRITERION=  0.1912E-10 <<< CONVERGED
    >>> SOLUTION CONVERGED AFTER EQUILIBRIUM ITERATION   1
 *** LOAD STEP     1   SUBSTEP    67  COMPLETED.    CUM ITER =     68
 *** TIME =  0.774871E-07     TIME INC =  0.100000E-09
 *** RESPONSE FREQ = 0.6876E+09   PERIOD=  0.1454E-08  PTS/CYC =  15.    
 *** AUTO STEP TIME:  NEXT TIME INC = 0.10000E-09  UNCHANGED

     FORCE CONVERGENCE VALUE  =  0.4466E-05  CRITERION=  0.1000E-02
     CURRENT CONVERGENCE VALUE=   0.000      CRITERION=  0.1519E-10
    EQUIL ITER   1 COMPLETED.  NEW TRIANG MATRIX.  MAX DOF INC= -0.1681E-09
     FORCE CONVERGENCE VALUE  =  0.3119E-07  CRITERION=  0.1000E-02 <<< CONVERGED
     CURRENT CONVERGENCE VALUE=   0.000      CRITERION=  0.1998E-10 <<< CONVERGED
    >>> SOLUTION CONVERGED AFTER EQUILIBRIUM ITERATION   1
 *** LOAD STEP     1   SUBSTEP    68  COMPLETED.    CUM ITER =     69
 *** TIME =  0.775871E-07     TIME INC =  0.100000E-09
 *** RESPONSE FREQ = 0.6764E+09   PERIOD=  0.1479E-08  PTS/CYC =  15.    
 *** AUTO STEP TIME:  NEXT TIME INC = 0.10000E-09  UNCHANGED

     FORCE CONVERGENCE VALUE  =  0.4140E-05  CRITERION=  0.1000E-02
     CURRENT CONVERGENCE VALUE=   0.000      CRITERION=  0.1578E-10
    EQUIL ITER   1 COMPLETED.  NEW TRIANG MATRIX.  MAX DOF INC= -0.1685E-09
     FORCE CONVERGENCE VALUE  =  0.2346E-07  CRITERION=  0.1000E-02 <<< CONVERGED
     CURRENT CONVERGENCE VALUE=   0.000      CRITERION=  0.1975E-10 <<< CONVERGED
    >>> SOLUTION CONVERGED AFTER EQUILIBRIUM ITERATION   1
 *** LOAD STEP     1   SUBSTEP    69  COMPLETED.    CUM ITER =     70
 *** TIME =  0.776871E-07     TIME INC =  0.100000E-09
 *** RESPONSE FREQ = 0.5741E+09   PERIOD=  0.1742E-08  PTS/CYC =  17.    
 *** AUTO STEP TIME:  NEXT TIME INC = 0.10000E-09  UNCHANGED

     FORCE CONVERGENCE VALUE  =  0.3928E-05  CRITERION=  0.1000E-02
     CURRENT CONVERGENCE VALUE=   0.000      CRITERION=  0.1553E-10
    EQUIL ITER   1 COMPLETED.  NEW TRIANG MATRIX.  MAX DOF INC= -0.1529E-09
     FORCE CONVERGENCE VALUE  =  0.1601E-07  CRITERION=  0.1000E-02 <<< CONVERGED
     CURRENT CONVERGENCE VALUE=   0.000      CRITERION=  0.1902E-10 <<< CONVERGED
    >>> SOLUTION CONVERGED AFTER EQUILIBRIUM ITERATION   1
 *** LOAD STEP     1   SUBSTEP    70  COMPLETED.    CUM ITER =     71
 *** TIME =  0.777871E-07     TIME INC =  0.100000E-09
 *** RESPONSE FREQ = 0.4738E+09   PERIOD=  0.2111E-08  PTS/CYC =  21.    
 *** AUTO TIME STEP:  NEXT TIME INC = 0.10554E-09  INCREASED (FACTOR = 1.0554)

     FORCE CONVERGENCE VALUE  =  0.3928E-05  CRITERION=  0.1000E-02
     CURRENT CONVERGENCE VALUE=   0.000      CRITERION=  0.1493E-10
    EQUIL ITER   1 COMPLETED.  NEW TRIANG MATRIX.  MAX DOF INC=  0.1517E-09
     FORCE CONVERGENCE VALUE  =  0.2378E-07  CRITERION=  0.1000E-02 <<< CONVERGED
     CURRENT CONVERGENCE VALUE=   0.000      CRITERION=  0.1848E-10 <<< CONVERGED
    >>> SOLUTION CONVERGED AFTER EQUILIBRIUM ITERATION   1
 *** LOAD STEP     1   SUBSTEP    71  COMPLETED.    CUM ITER =     72
 *** TIME =  0.778926E-07     TIME INC =  0.105541E-09
 *** RESPONSE FREQ = 0.5561E+09   PERIOD=  0.1798E-08  PTS/CYC =  17.    
 *** AUTO TIME STEP:  NEXT TIME INC = 0.10000E-09  DECREASED (FACTOR = 0.9475)

     FORCE CONVERGENCE VALUE  =  0.4349E-05  CRITERION=  0.1000E-02
     CURRENT CONVERGENCE VALUE=   0.000      CRITERION=  0.1454E-10
    EQUIL ITER   1 COMPLETED.  NEW TRIANG MATRIX.  MAX DOF INC=  0.1522E-09
     FORCE CONVERGENCE VALUE  =  0.2956E-07  CRITERION=  0.1000E-02 <<< CONVERGED
     CURRENT CONVERGENCE VALUE=   0.000      CRITERION=  0.1828E-10 <<< CONVERGED
    >>> SOLUTION CONVERGED AFTER EQUILIBRIUM ITERATION   1
 *** LOAD STEP     1   SUBSTEP    72  COMPLETED.    CUM ITER =     73
 *** TIME =  0.779926E-07     TIME INC =  0.100000E-09
 *** RESPONSE FREQ = 0.6408E+09   PERIOD=  0.1561E-08  PTS/CYC =  16.    
 *** AUTO STEP TIME:  NEXT TIME INC = 0.10000E-09  UNCHANGED

     FORCE CONVERGENCE VALUE  =  0.4134E-05  CRITERION=  0.1000E-02
     CURRENT CONVERGENCE VALUE=   0.000      CRITERION=  0.1438E-10
    EQUIL ITER   1 COMPLETED.  NEW TRIANG MATRIX.  MAX DOF INC=  0.1528E-09
     FORCE CONVERGENCE VALUE  =  0.2768E-07  CRITERION=  0.1000E-02 <<< CONVERGED
     CURRENT CONVERGENCE VALUE=   0.000      CRITERION=  0.1786E-10 <<< CONVERGED
    >>> SOLUTION CONVERGED AFTER EQUILIBRIUM ITERATION   1
 *** LOAD STEP     1   SUBSTEP    73  COMPLETED.    CUM ITER =     74
 *** TIME =  0.780926E-07     TIME INC =  0.100000E-09
 *** RESPONSE FREQ = 0.6312E+09   PERIOD=  0.1584E-08  PTS/CYC =  16.    
 *** AUTO STEP TIME:  NEXT TIME INC = 0.10000E-09  UNCHANGED

     FORCE CONVERGENCE VALUE  =  0.3601E-05  CRITERION=  0.1000E-02
     CURRENT CONVERGENCE VALUE=   0.000      CRITERION=  0.1403E-10
    EQUIL ITER   1 COMPLETED.  NEW TRIANG MATRIX.  MAX DOF INC= -0.1540E-09
     FORCE CONVERGENCE VALUE  =  0.1912E-07  CRITERION=  0.1000E-02 <<< CONVERGED
     CURRENT CONVERGENCE VALUE=   0.000      CRITERION=  0.1688E-10 <<< CONVERGED
    >>> SOLUTION CONVERGED AFTER EQUILIBRIUM ITERATION   1
 *** LOAD STEP     1   SUBSTEP    74  COMPLETED.    CUM ITER =     75
 *** TIME =  0.781926E-07     TIME INC =  0.100000E-09
 *** RESPONSE FREQ = 0.5532E+09   PERIOD=  0.1808E-08  PTS/CYC =  18.    
 *** AUTO STEP TIME:  NEXT TIME INC = 0.10000E-09  UNCHANGED

     FORCE CONVERGENCE VALUE  =  0.3277E-05  CRITERION=  0.1000E-02
     CURRENT CONVERGENCE VALUE=   0.000      CRITERION=  0.1321E-10
    EQUIL ITER   1 COMPLETED.  NEW TRIANG MATRIX.  MAX DOF INC= -0.1494E-09
     FORCE CONVERGENCE VALUE  =  0.1541E-07  CRITERION=  0.1000E-02 <<< CONVERGED
     CURRENT CONVERGENCE VALUE=   0.000      CRITERION=  0.1535E-10 <<< CONVERGED
    >>> SOLUTION CONVERGED AFTER EQUILIBRIUM ITERATION   1
 *** LOAD STEP     1   SUBSTEP    75  COMPLETED.    CUM ITER =     76
 *** TIME =  0.782926E-07     TIME INC =  0.100000E-09
 *** RESPONSE FREQ = 0.5143E+09   PERIOD=  0.1945E-08  PTS/CYC =  19.    
 *** AUTO STEP TIME:  NEXT TIME INC = 0.10000E-09  UNCHANGED

     FORCE CONVERGENCE VALUE  =  0.3429E-05  CRITERION=  0.1000E-02
     CURRENT CONVERGENCE VALUE=   0.000      CRITERION=  0.1198E-10
    EQUIL ITER   1 COMPLETED.  NEW TRIANG MATRIX.  MAX DOF INC= -0.1533E-09
     FORCE CONVERGENCE VALUE  =  0.2261E-07  CRITERION=  0.1000E-02 <<< CONVERGED
     CURRENT CONVERGENCE VALUE=   0.000      CRITERION=  0.1354E-10 <<< CONVERGED
    >>> SOLUTION CONVERGED AFTER EQUILIBRIUM ITERATION   1
 *** LOAD STEP     1   SUBSTEP    76  COMPLETED.    CUM ITER =     77
 *** TIME =  0.783926E-07     TIME INC =  0.100000E-09
 *** RESPONSE FREQ = 0.5964E+09   PERIOD=  0.1677E-08  PTS/CYC =  17.    
 *** AUTO STEP TIME:  NEXT TIME INC = 0.10000E-09  UNCHANGED

     FORCE CONVERGENCE VALUE  =  0.3648E-05  CRITERION=  0.1000E-02
     CURRENT CONVERGENCE VALUE=   0.000      CRITERION=  0.1056E-10
    EQUIL ITER   1 COMPLETED.  NEW TRIANG MATRIX.  MAX DOF INC=  0.1430E-09
     FORCE CONVERGENCE VALUE  =  0.2707E-07  CRITERION=  0.1000E-02 <<< CONVERGED
     CURRENT CONVERGENCE VALUE=   0.000      CRITERION=  0.1199E-10 <<< CONVERGED
    >>> SOLUTION CONVERGED AFTER EQUILIBRIUM ITERATION   1
 *** LOAD STEP     1   SUBSTEP    77  COMPLETED.    CUM ITER =     78
 *** TIME =  0.784926E-07     TIME INC =  0.100000E-09
 *** RESPONSE FREQ = 0.6530E+09   PERIOD=  0.1531E-08  PTS/CYC =  15.    
 *** AUTO STEP TIME:  NEXT TIME INC = 0.10000E-09  UNCHANGED

     FORCE CONVERGENCE VALUE  =  0.3625E-05  CRITERION=  0.1000E-02
     CURRENT CONVERGENCE VALUE=   0.000      CRITERION=  0.9379E-11
    EQUIL ITER   1 COMPLETED.  NEW TRIANG MATRIX.  MAX DOF INC=  0.1755E-09
     FORCE CONVERGENCE VALUE  =  0.2378E-07  CRITERION=  0.1000E-02 <<< CONVERGED
     CURRENT CONVERGENCE VALUE=   0.000      CRITERION=  0.1141E-10 <<< CONVERGED
    >>> SOLUTION CONVERGED AFTER EQUILIBRIUM ITERATION   1
 *** LOAD STEP     1   SUBSTEP    78  COMPLETED.    CUM ITER =     79
 *** TIME =  0.785926E-07     TIME INC =  0.100000E-09
 *** RESPONSE FREQ = 0.6070E+09   PERIOD=  0.1648E-08  PTS/CYC =  16.    
 *** AUTO STEP TIME:  NEXT TIME INC = 0.10000E-09  UNCHANGED

[...]
     CURRENT CONVERGENCE VALUE=   0.000      CRITERION=  0.5883E-11
    EQUIL ITER   1 COMPLETED.  NEW TRIANG MATRIX.  MAX DOF INC= -0.1187E-09
     FORCE CONVERGENCE VALUE  =  0.8340E-08  CRITERION=  0.1000E-02 <<< CONVERGED
     CURRENT CONVERGENCE VALUE=   0.000      CRITERION=  0.7771E-11 <<< CONVERGED
    >>> SOLUTION CONVERGED AFTER EQUILIBRIUM ITERATION   1
 *** LOAD STEP     1   SUBSTEP   378  COMPLETED.    CUM ITER =    379
 *** TIME =  0.122255E-06     TIME INC =  0.115121E-09
 *** RESPONSE FREQ = 0.3778E+09   PERIOD=  0.2647E-08  PTS/CYC =  23.    
 *** AUTO TIME STEP:  NEXT TIME INC = 0.13233E-09  INCREASED (FACTOR = 1.1495)

     FORCE CONVERGENCE VALUE  =  0.1152E-05  CRITERION=  0.1000E-02
     CURRENT CONVERGENCE VALUE=   0.000      CRITERION=  0.6150E-11
    EQUIL ITER   1 COMPLETED.  NEW TRIANG MATRIX.  MAX DOF INC= -0.1243E-09
     FORCE CONVERGENCE VALUE  =  0.2521E-07  CRITERION=  0.1000E-02 <<< CONVERGED
     CURRENT CONVERGENCE VALUE=   0.000      CRITERION=  0.7898E-11 <<< CONVERGED
    >>> SOLUTION CONVERGED AFTER EQUILIBRIUM ITERATION   1
 *** LOAD STEP     1   SUBSTEP   379  COMPLETED.    CUM ITER =    380
 *** TIME =  0.122387E-06     TIME INC =  0.132331E-09
 *** RESPONSE FREQ = 0.4083E+09   PERIOD=  0.2449E-08  PTS/CYC =  19.    
 *** AUTO TIME STEP:  NEXT TIME INC = 0.12246E-09  DECREASED (FACTOR = 0.9254)

     FORCE CONVERGENCE VALUE  =  0.1263E-05  CRITERION=  0.1000E-02
     CURRENT CONVERGENCE VALUE=   0.000      CRITERION=  0.6233E-11
    EQUIL ITER   1 COMPLETED.  NEW TRIANG MATRIX.  MAX DOF INC= -0.1015E-09
     FORCE CONVERGENCE VALUE  =  0.4002E-07  CRITERION=  0.1000E-02 <<< CONVERGED
     CURRENT CONVERGENCE VALUE=   0.000      CRITERION=  0.7477E-11 <<< CONVERGED
    >>> SOLUTION CONVERGED AFTER EQUILIBRIUM ITERATION   1
 *** LOAD STEP     1   SUBSTEP   380  COMPLETED.    CUM ITER =    381
 *** TIME =  0.122510E-06     TIME INC =  0.122460E-09
 *** RESPONSE FREQ = 0.3945E+09   PERIOD=  0.2535E-08  PTS/CYC =  21.    
 *** AUTO STEP TIME:  NEXT TIME INC = 0.12246E-09  UNCHANGED

     FORCE CONVERGENCE VALUE  =  0.1215E-05  CRITERION=  0.1000E-02
     CURRENT CONVERGENCE VALUE=   0.000      CRITERION=  0.5854E-11
    EQUIL ITER   1 COMPLETED.  NEW TRIANG MATRIX.  MAX DOF INC= -0.8690E-10
     FORCE CONVERGENCE VALUE  =  0.1201E-07  CRITERION=  0.1000E-02 <<< CONVERGED
     CURRENT CONVERGENCE VALUE=   0.000      CRITERION=  0.6730E-11 <<< CONVERGED
    >>> SOLUTION CONVERGED AFTER EQUILIBRIUM ITERATION   1
 *** LOAD STEP     1   SUBSTEP   381  COMPLETED.    CUM ITER =    382
 *** TIME =  0.122632E-06     TIME INC =  0.122460E-09
 *** RESPONSE FREQ = 0.3619E+09   PERIOD=  0.2763E-08  PTS/CYC =  23.    
 *** AUTO TIME STEP:  NEXT TIME INC = 0.13815E-09  INCREASED (FACTOR = 1.1281)

     FORCE CONVERGENCE VALUE  =  0.1047E-05  CRITERION=  0.1000E-02
     CURRENT CONVERGENCE VALUE=   0.000      CRITERION=  0.5257E-11
    EQUIL ITER   1 COMPLETED.  NEW TRIANG MATRIX.  MAX DOF INC=  0.9843E-10
     FORCE CONVERGENCE VALUE  =  0.7723E-08  CRITERION=  0.1000E-02 <<< CONVERGED
     CURRENT CONVERGENCE VALUE=   0.000      CRITERION=  0.6113E-11 <<< CONVERGED
    >>> SOLUTION CONVERGED AFTER EQUILIBRIUM ITERATION   1
 *** LOAD STEP     1   SUBSTEP   382  COMPLETED.    CUM ITER =    383
 *** TIME =  0.122770E-06     TIME INC =  0.138146E-09
 *** RESPONSE FREQ = 0.3138E+09   PERIOD=  0.3187E-08  PTS/CYC =  23.    
 *** AUTO TIME STEP:  NEXT TIME INC = 0.15935E-09  INCREASED (FACTOR = 1.1535)

     FORCE CONVERGENCE VALUE  =  0.9247E-06  CRITERION=  0.1000E-02
     CURRENT CONVERGENCE VALUE=   0.000      CRITERION=  0.4804E-11
    EQUIL ITER   1 COMPLETED.  NEW TRIANG MATRIX.  MAX DOF INC=  0.1280E-09
     FORCE CONVERGENCE VALUE  =  0.2206E-07  CRITERION=  0.1000E-02 <<< CONVERGED
     CURRENT CONVERGENCE VALUE=   0.000      CRITERION=  0.6156E-11 <<< CONVERGED
    >>> SOLUTION CONVERGED AFTER EQUILIBRIUM ITERATION   1
 *** LOAD STEP     1   SUBSTEP   383  COMPLETED.    CUM ITER =    384
 *** TIME =  0.122930E-06     TIME INC =  0.159350E-09
 *** RESPONSE FREQ = 0.2900E+09   PERIOD=  0.3449E-08  PTS/CYC =  22.    
 *** AUTO TIME STEP:  NEXT TIME INC = 0.17243E-09  INCREASED (FACTOR = 1.0821)

     FORCE CONVERGENCE VALUE  =  0.9173E-06  CRITERION=  0.1000E-02
     CURRENT CONVERGENCE VALUE=   0.000      CRITERION=  0.4890E-11
    EQUIL ITER   1 COMPLETED.  NEW TRIANG MATRIX.  MAX DOF INC=  0.1606E-09
     FORCE CONVERGENCE VALUE  =  0.6269E-07  CRITERION=  0.1000E-02 <<< CONVERGED
     CURRENT CONVERGENCE VALUE=   0.000      CRITERION=  0.6726E-11 <<< CONVERGED
    >>> SOLUTION CONVERGED AFTER EQUILIBRIUM ITERATION   1
 *** LOAD STEP     1   SUBSTEP   384  COMPLETED.    CUM ITER =    385
 *** TIME =  0.123102E-06     TIME INC =  0.172432E-09
 *** RESPONSE FREQ = 0.3438E+09   PERIOD=  0.2909E-08  PTS/CYC =  17.    
 *** AUTO TIME STEP:  NEXT TIME INC = 0.14544E-09  DECREASED (FACTOR = 0.8434)

     FORCE CONVERGENCE VALUE  =  0.1159E-05  CRITERION=  0.1000E-02
     CURRENT CONVERGENCE VALUE=   0.000      CRITERION=  0.5368E-11
    EQUIL ITER   1 COMPLETED.  NEW TRIANG MATRIX.  MAX DOF INC=  0.1252E-09
     FORCE CONVERGENCE VALUE  =  0.1924E-07  CRITERION=  0.1000E-02 <<< CONVERGED
     CURRENT CONVERGENCE VALUE=   0.000      CRITERION=  0.7238E-11 <<< CONVERGED
    >>> SOLUTION CONVERGED AFTER EQUILIBRIUM ITERATION   1
 *** LOAD STEP     1   SUBSTEP   385  COMPLETED.    CUM ITER =    386
 *** TIME =  0.123247E-06     TIME INC =  0.145435E-09
 *** RESPONSE FREQ = 0.3384E+09   PERIOD=  0.2955E-08  PTS/CYC =  20.    
 *** AUTO STEP TIME:  NEXT TIME INC = 0.14544E-09  UNCHANGED

     FORCE CONVERGENCE VALUE  =  0.1207E-05  CRITERION=  0.1000E-02
     CURRENT CONVERGENCE VALUE=   0.000      CRITERION=  0.5742E-11
    EQUIL ITER   1 COMPLETED.  NEW TRIANG MATRIX.  MAX DOF INC=  0.1182E-09
     FORCE CONVERGENCE VALUE  =  0.2313E-07  CRITERION=  0.1000E-02 <<< CONVERGED
     CURRENT CONVERGENCE VALUE=   0.000      CRITERION=  0.7539E-11 <<< CONVERGED
    >>> SOLUTION CONVERGED AFTER EQUILIBRIUM ITERATION   1
 *** LOAD STEP     1   SUBSTEP   386  COMPLETED.    CUM ITER =    387
 *** TIME =  0.123393E-06     TIME INC =  0.145435E-09
 *** RESPONSE FREQ = 0.2930E+09   PERIOD=  0.3413E-08  PTS/CYC =  23.    
 *** AUTO TIME STEP:  NEXT TIME INC = 0.17066E-09  INCREASED (FACTOR = 1.1735)

     FORCE CONVERGENCE VALUE  =  0.1085E-05  CRITERION=  0.1000E-02
     CURRENT CONVERGENCE VALUE=   0.000      CRITERION=  0.5966E-11
    EQUIL ITER   1 COMPLETED.  NEW TRIANG MATRIX.  MAX DOF INC=  0.1557E-09
     FORCE CONVERGENCE VALUE  =  0.1628E-07  CRITERION=  0.1000E-02 <<< CONVERGED
     CURRENT CONVERGENCE VALUE=   0.000      CRITERION=  0.7786E-11 <<< CONVERGED
    >>> SOLUTION CONVERGED AFTER EQUILIBRIUM ITERATION   1
 *** LOAD STEP     1   SUBSTEP   387  COMPLETED.    CUM ITER =    388
 *** TIME =  0.123564E-06     TIME INC =  0.170664E-09
 *** RESPONSE FREQ = 0.2725E+09   PERIOD=  0.3670E-08  PTS/CYC =  22.    
 *** AUTO TIME STEP:  NEXT TIME INC = 0.18352E-09  INCREASED (FACTOR = 1.0753)

     FORCE CONVERGENCE VALUE  =  0.1055E-05  CRITERION=  0.1000E-02
     CURRENT CONVERGENCE VALUE=   0.000      CRITERION=  0.6162E-11
    EQUIL ITER   1 COMPLETED.  NEW TRIANG MATRIX.  MAX DOF INC=  0.1622E-09
     FORCE CONVERGENCE VALUE  =  0.1061E-07  CRITERION=  0.1000E-02 <<< CONVERGED
     CURRENT CONVERGENCE VALUE=   0.000      CRITERION=  0.7924E-11 <<< CONVERGED
    >>> SOLUTION CONVERGED AFTER EQUILIBRIUM ITERATION   1
 *** LOAD STEP     1   SUBSTEP   388  COMPLETED.    CUM ITER =    389
 *** TIME =  0.123747E-06     TIME INC =  0.183516E-09
 *** RESPONSE FREQ = 0.2511E+09   PERIOD=  0.3982E-08  PTS/CYC =  22.    
 *** AUTO TIME STEP:  NEXT TIME INC = 0.19911E-09  INCREASED (FACTOR = 1.0850)

     FORCE CONVERGENCE VALUE  =  0.1012E-05  CRITERION=  0.1000E-02
     CURRENT CONVERGENCE VALUE=   0.000      CRITERION=  0.6264E-11
    EQUIL ITER   1 COMPLETED.  NEW TRIANG MATRIX.  MAX DOF INC=  0.1882E-09
     FORCE CONVERGENCE VALUE  =  0.9404E-07  CRITERION=  0.1000E-02 <<< CONVERGED
     CURRENT CONVERGENCE VALUE=   0.000      CRITERION=  0.7880E-11 <<< CONVERGED
    >>> SOLUTION CONVERGED AFTER EQUILIBRIUM ITERATION   1
 *** LOAD STEP     1   SUBSTEP   389  COMPLETED.    CUM ITER =    390
 *** TIME =  0.123946E-06     TIME INC =  0.199106E-09
 *** RESPONSE FREQ = 0.2829E+09   PERIOD=  0.3535E-08  PTS/CYC =  18.    
 *** AUTO TIME STEP:  NEXT TIME INC = 0.17673E-09  DECREASED (FACTOR = 0.8876)

     FORCE CONVERGENCE VALUE  =  0.1165E-05  CRITERION=  0.1000E-02
     CURRENT CONVERGENCE VALUE=   0.000      CRITERION=  0.6216E-11
    EQUIL ITER   1 COMPLETED.  NEW TRIANG MATRIX.  MAX DOF INC=  0.1946E-09
     FORCE CONVERGENCE VALUE  =  0.3298E-07  CRITERION=  0.1000E-02 <<< CONVERGED
     CURRENT CONVERGENCE VALUE=   0.000      CRITERION=  0.7454E-11 <<< CONVERGED
    >>> SOLUTION CONVERGED AFTER EQUILIBRIUM ITERATION   1
 *** LOAD STEP     1   SUBSTEP   390  COMPLETED.    CUM ITER =    391
 *** TIME =  0.124123E-06     TIME INC =  0.176728E-09
 *** RESPONSE FREQ = 0.2800E+09   PERIOD=  0.3572E-08  PTS/CYC =  20.    
 *** AUTO STEP TIME:  NEXT TIME INC = 0.17673E-09  UNCHANGED

     FORCE CONVERGENCE VALUE  =  0.1140E-05  CRITERION=  0.1000E-02
     CURRENT CONVERGENCE VALUE=   0.000      CRITERION=  0.5849E-11
    EQUIL ITER   1 COMPLETED.  NEW TRIANG MATRIX.  MAX DOF INC=  0.2028E-09
     FORCE CONVERGENCE VALUE  =  0.1686E-07  CRITERION=  0.1000E-02 <<< CONVERGED
     CURRENT CONVERGENCE VALUE=   0.000      CRITERION=  0.6759E-11 <<< CONVERGED
    >>> SOLUTION CONVERGED AFTER EQUILIBRIUM ITERATION   1
 *** LOAD STEP     1   SUBSTEP   391  COMPLETED.    CUM ITER =    392
 *** TIME =  0.124300E-06     TIME INC =  0.176728E-09
 *** RESPONSE FREQ = 0.2667E+09   PERIOD=  0.3750E-08  PTS/CYC =  21.    
 *** AUTO TIME STEP:  NEXT TIME INC = 0.18748E-09  INCREASED (FACTOR = 1.0609)

     FORCE CONVERGENCE VALUE  =  0.1057E-05  CRITERION=  0.1000E-02
     CURRENT CONVERGENCE VALUE=   0.000      CRITERION=  0.5295E-11
    EQUIL ITER   1 COMPLETED.  NEW TRIANG MATRIX.  MAX DOF INC=  0.2101E-09
     FORCE CONVERGENCE VALUE  =  0.5153E-07  CRITERION=  0.1000E-02 <<< CONVERGED
     CURRENT CONVERGENCE VALUE=   0.000      CRITERION=  0.6052E-11 <<< CONVERGED
    >>> SOLUTION CONVERGED AFTER EQUILIBRIUM ITERATION   1
 *** LOAD STEP     1   SUBSTEP   392  COMPLETED.    CUM ITER =    393
 *** TIME =  0.124487E-06     TIME INC =  0.187483E-09
 *** RESPONSE FREQ = 0.2506E+09   PERIOD=  0.3991E-08  PTS/CYC =  21.    
 *** AUTO TIME STEP:  NEXT TIME INC = 0.19956E-09  INCREASED (FACTOR = 1.0644)

     FORCE CONVERGENCE VALUE  =  0.9924E-06  CRITERION=  0.1000E-02
     CURRENT CONVERGENCE VALUE=   0.000      CRITERION=  0.4754E-11
    EQUIL ITER   1 COMPLETED.  NEW TRIANG MATRIX.  MAX DOF INC=  0.2207E-09
     FORCE CONVERGENCE VALUE  =  0.9728E-08  CRITERION=  0.1000E-02 <<< CONVERGED
     CURRENT CONVERGENCE VALUE=   0.000      CRITERION=  0.6059E-11 <<< CONVERGED
    >>> SOLUTION CONVERGED AFTER EQUILIBRIUM ITERATION   1
 *** LOAD STEP     1   SUBSTEP   393  COMPLETED.    CUM ITER =    394
 *** TIME =  0.124687E-06     TIME INC =  0.199560E-09
 *** RESPONSE FREQ = 0.2188E+09   PERIOD=  0.4571E-08  PTS/CYC =  23.    
 *** AUTO TIME STEP:  NEXT TIME INC = 0.22856E-09  INCREASED (FACTOR = 1.1453)

     FORCE CONVERGENCE VALUE  =  0.8971E-06  CRITERION=  0.1000E-02
     CURRENT CONVERGENCE VALUE=   0.000      CRITERION=  0.4830E-11
    EQUIL ITER   1 COMPLETED.  NEW TRIANG MATRIX.  MAX DOF INC=  0.2726E-09
     FORCE CONVERGENCE VALUE  =  0.3305E-07  CRITERION=  0.1000E-02 <<< CONVERGED
     CURRENT CONVERGENCE VALUE=   0.000      CRITERION=  0.7144E-11 <<< CONVERGED
    >>> SOLUTION CONVERGED AFTER EQUILIBRIUM ITERATION   1
 *** LOAD STEP     1   SUBSTEP   394  COMPLETED.    CUM ITER =    395
 *** TIME =  0.124915E-06     TIME INC =  0.228556E-09
 *** RESPONSE FREQ = 0.2232E+09   PERIOD=  0.4480E-08  PTS/CYC =  20.    
 *** AUTO TIME STEP:  NEXT TIME INC = 0.22401E-09  DECREASED (FACTOR = 0.9801)

     FORCE CONVERGENCE VALUE  =  0.9312E-06  CRITERION=  0.1000E-02
     CURRENT CONVERGENCE VALUE=   0.000      CRITERION=  0.5738E-11
    EQUIL ITER   1 COMPLETED.  NEW TRIANG MATRIX.  MAX DOF INC=  0.2539E-09
     FORCE CONVERGENCE VALUE  =  0.9958E-08  CRITERION=  0.1000E-02 <<< CONVERGED
     CURRENT CONVERGENCE VALUE=   0.000      CRITERION=  0.8123E-11 <<< CONVERGED
    >>> SOLUTION CONVERGED AFTER EQUILIBRIUM ITERATION   1
 *** LOAD STEP     1   SUBSTEP   395  COMPLETED.    CUM ITER =    396
 *** TIME =  0.125139E-06     TIME INC =  0.224014E-09
 *** RESPONSE FREQ = 0.2234E+09   PERIOD=  0.4477E-08  PTS/CYC =  20.    
 *** AUTO TIME STEP:  NEXT TIME INC = 0.22385E-09  DECREASED (FACTOR = 0.9993)

     FORCE CONVERGENCE VALUE  =  0.9246E-06  CRITERION=  0.1000E-02
     CURRENT CONVERGENCE VALUE=   0.000      CRITERION=  0.6465E-11
    EQUIL ITER   1 COMPLETED.  NEW TRIANG MATRIX.  MAX DOF INC=  0.2087E-09
     FORCE CONVERGENCE VALUE  =  0.1695E-07  CRITERION=  0.1000E-02 <<< CONVERGED
     CURRENT CONVERGENCE VALUE=   0.000      CRITERION=  0.8482E-11 <<< CONVERGED
    >>> SOLUTION CONVERGED AFTER EQUILIBRIUM ITERATION   1
 *** LOAD STEP     1   SUBSTEP   396  COMPLETED.    CUM ITER =    397
 *** TIME =  0.125363E-06     TIME INC =  0.223848E-09
 *** RESPONSE FREQ = 0.2300E+09   PERIOD=  0.4348E-08  PTS/CYC =  19.    
 *** AUTO TIME STEP:  NEXT TIME INC = 0.21739E-09  DECREASED (FACTOR = 0.9711)

     FORCE CONVERGENCE VALUE  =  0.9171E-06  CRITERION=  0.1000E-02
     CURRENT CONVERGENCE VALUE=   0.000      CRITERION=  0.6699E-11
    EQUIL ITER   1 COMPLETED.  NEW TRIANG MATRIX.  MAX DOF INC=  0.1748E-09
     FORCE CONVERGENCE VALUE  =  0.1793E-07  CRITERION=  0.1000E-02 <<< CONVERGED
     CURRENT CONVERGENCE VALUE=   0.000      CRITERION=  0.8430E-11 <<< CONVERGED
    >>> SOLUTION CONVERGED AFTER EQUILIBRIUM ITERATION   1
 *** LOAD STEP     1   SUBSTEP   397  COMPLETED.    CUM ITER =    398
 *** TIME =  0.125580E-06     TIME INC =  0.217386E-09
 *** RESPONSE FREQ = 0.2144E+09   PERIOD=  0.4665E-08  PTS/CYC =  21.    
 *** AUTO STEP TIME:  NEXT TIME INC = 0.21739E-09  UNCHANGED

     FORCE CONVERGENCE VALUE  =  0.8774E-06  CRITERION=  0.1000E-02
     CURRENT CONVERGENCE VALUE=   0.000      CRITERION=  0.6633E-11
    EQUIL ITER   1 COMPLETED.  NEW TRIANG MATRIX.  MAX DOF INC=  0.1961E-09
     FORCE CONVERGENCE VALUE  =  0.1103E-07  CRITERION=  0.1000E-02 <<< CONVERGED
     CURRENT CONVERGENCE VALUE=   0.000      CRITERION=  0.8469E-11 <<< CONVERGED
    >>> SOLUTION CONVERGED AFTER EQUILIBRIUM ITERATION   1
 *** LOAD STEP     1   SUBSTEP   398  COMPLETED.    CUM ITER =    399
 *** TIME =  0.125798E-06     TIME INC =  0.217386E-09
 *** RESPONSE FREQ = 0.1766E+09   PERIOD=  0.5663E-08  PTS/CYC =  26.    
 *** AUTO TIME STEP:  NEXT TIME INC = 0.28317E-09  INCREASED (FACTOR = 1.3026)

     FORCE CONVERGENCE VALUE  =  0.6713E-06  CRITERION=  0.1000E-02
     CURRENT CONVERGENCE VALUE=   0.000      CRITERION=  0.6684E-11
    EQUIL ITER   1 COMPLETED.  NEW TRIANG MATRIX.  MAX DOF INC=  0.2445E-09
     FORCE CONVERGENCE VALUE  =  0.2331E-07  CRITERION=  0.1000E-02 <<< CONVERGED
     CURRENT CONVERGENCE VALUE=   0.000      CRITERION=  0.9106E-11 <<< CONVERGED
    >>> SOLUTION CONVERGED AFTER EQUILIBRIUM ITERATION   1
 *** LOAD STEP     1   SUBSTEP   399  COMPLETED.    CUM ITER =    400
 *** TIME =  0.126081E-06     TIME INC =  0.283167E-09
 *** RESPONSE FREQ = 0.2601E+09   PERIOD=  0.3845E-08  PTS/CYC =  14.    
 *** AUTO TIME STEP:  NEXT TIME INC = 0.19226E-09  DECREASED (FACTOR = 0.6790)

     FORCE CONVERGENCE VALUE  =  0.9792E-06  CRITERION=  0.1000E-02
     CURRENT CONVERGENCE VALUE=   0.000      CRITERION=  0.7249E-11
    EQUIL ITER   1 COMPLETED.  NEW TRIANG MATRIX.  MAX DOF INC=  0.1377E-09
     FORCE CONVERGENCE VALUE  =  0.1124E-06  CRITERION=  0.1000E-02 <<< CONVERGED
     CURRENT CONVERGENCE VALUE=   0.000      CRITERION=  0.9459E-11 <<< CONVERGED
    >>> SOLUTION CONVERGED AFTER EQUILIBRIUM ITERATION   1
 *** LOAD STEP     1   SUBSTEP   400  COMPLETED.    CUM ITER =    401
 *** TIME =  0.126273E-06     TIME INC =  0.192258E-09
 *** RESPONSE FREQ = 0.3097E+09   PERIOD=  0.3229E-08  PTS/CYC =  17.    
 *** AUTO TIME STEP:  NEXT TIME INC = 0.16144E-09  DECREASED (FACTOR = 0.8397)

     FORCE CONVERGENCE VALUE  =  0.1099E-05  CRITERION=  0.1000E-02
     CURRENT CONVERGENCE VALUE=   0.000      CRITERION=  0.7471E-11
    EQUIL ITER   1 COMPLETED.  NEW TRIANG MATRIX.  MAX DOF INC=  0.1199E-09
     FORCE CONVERGENCE VALUE  =  0.6095E-07  CRITERION=  0.1000E-02 <<< CONVERGED
     CURRENT CONVERGENCE VALUE=   0.000      CRITERION=  0.9494E-11 <<< CONVERGED
    >>> SOLUTION CONVERGED AFTER EQUILIBRIUM ITERATION   1
 *** LOAD STEP     1   SUBSTEP   401  COMPLETED.    CUM ITER =    402
 *** TIME =  0.126435E-06     TIME INC =  0.161439E-09
 *** RESPONSE FREQ = 0.2924E+09   PERIOD=  0.3420E-08  PTS/CYC =  21.    
 *** AUTO STEP TIME:  NEXT TIME INC = 0.16144E-09  UNCHANGED

     FORCE CONVERGENCE VALUE  =  0.1049E-05  CRITERION=  0.1000E-02
     CURRENT CONVERGENCE VALUE=   0.000      CRITERION=  0.7481E-11
    EQUIL ITER   1 COMPLETED.  NEW TRIANG MATRIX.  MAX DOF INC=  0.1221E-09
     FORCE CONVERGENCE VALUE  =  0.5209E-07  CRITERION=  0.1000E-02 <<< CONVERGED
     CURRENT CONVERGENCE VALUE=   0.000      CRITERION=  0.9476E-11 <<< CONVERGED
    >>> SOLUTION CONVERGED AFTER EQUILIBRIUM ITERATION   1
 *** LOAD STEP     1   SUBSTEP   402  COMPLETED.    CUM ITER =    403
 *** TIME =  0.126596E-06     TIME INC =  0.161439E-09
 *** RESPONSE FREQ = 0.2991E+09   PERIOD=  0.3344E-08  PTS/CYC =  21.    
 *** AUTO TIME STEP:  NEXT TIME INC = 0.16718E-09  INCREASED (FACTOR = 1.0355)

     FORCE CONVERGENCE VALUE  =  0.9396E-06  CRITERION=  0.1000E-02
     CURRENT CONVERGENCE VALUE=   0.000      CRITERION=  0.7462E-11
    EQUIL ITER   1 COMPLETED.  NEW TRIANG MATRIX.  MAX DOF INC=  0.1106E-09
     FORCE CONVERGENCE VALUE  =  0.3267E-07  CRITERION=  0.1000E-02 <<< CONVERGED
     CURRENT CONVERGENCE VALUE=   0.000      CRITERION=  0.9281E-11 <<< CONVERGED
    >>> SOLUTION CONVERGED AFTER EQUILIBRIUM ITERATION   1
 *** LOAD STEP     1   SUBSTEP   403  COMPLETED.    CUM ITER =    404
 *** TIME =  0.126763E-06     TIME INC =  0.167176E-09
 *** RESPONSE FREQ = 0.2725E+09   PERIOD=  0.3670E-08  PTS/CYC =  22.    
 *** AUTO TIME STEP:  NEXT TIME INC = 0.18349E-09  INCREASED (FACTOR = 1.0976)

     FORCE CONVERGENCE VALUE  =  0.8068E-06  CRITERION=  0.1000E-02
     CURRENT CONVERGENCE VALUE=   0.000      CRITERION=  0.7303E-11
    EQUIL ITER   1 COMPLETED.  NEW TRIANG MATRIX.  MAX DOF INC=  0.1056E-09
     FORCE CONVERGENCE VALUE  =  0.3131E-07  CRITERION=  0.1000E-02 <<< CONVERGED
     CURRENT CONVERGENCE VALUE=   0.000      CRITERION=  0.9197E-11 <<< CONVERGED
    >>> SOLUTION CONVERGED AFTER EQUILIBRIUM ITERATION   1
 *** LOAD STEP     1   SUBSTEP   404  COMPLETED.    CUM ITER =    405
 *** TIME =  0.126947E-06     TIME INC =  0.183494E-09
 *** RESPONSE FREQ = 0.2395E+09   PERIOD=  0.4175E-08  PTS/CYC =  23.    
 *** AUTO TIME STEP:  NEXT TIME INC = 0.20876E-09  INCREASED (FACTOR = 1.1377)

     FORCE CONVERGENCE VALUE  =  0.7106E-06  CRITERION=  0.1000E-02
     CURRENT CONVERGENCE VALUE=   0.000      CRITERION=  0.7255E-11
    EQUIL ITER   1 COMPLETED.  NEW TRIANG MATRIX.  MAX DOF INC=  0.1108E-09
     FORCE CONVERGENCE VALUE  =  0.1550E-07  CRITERION=  0.1000E-02 <<< CONVERGED
     CURRENT CONVERGENCE VALUE=   0.000      CRITERION=  0.9495E-11 <<< CONVERGED
    >>> SOLUTION CONVERGED AFTER EQUILIBRIUM ITERATION   1
 *** LOAD STEP     1   SUBSTEP   405  COMPLETED.    CUM ITER =    406
 *** TIME =  0.127156E-06     TIME INC =  0.208759E-09
 *** RESPONSE FREQ = 0.2327E+09   PERIOD=  0.4298E-08  PTS/CYC =  21.    
 *** AUTO TIME STEP:  NEXT TIME INC = 0.21491E-09  INCREASED (FACTOR = 1.0295)

     FORCE CONVERGENCE VALUE  =  0.7153E-06  CRITERION=  0.1000E-02
     CURRENT CONVERGENCE VALUE=   0.000      CRITERION=  0.7512E-11
