
 ANSYS Academic Teaching Introductory              


 *------------------------------------------------------------------*
 |                                                                  |
 |   W E L C O M E   T O   T H E   A N S Y S (R)  P R O G R A M     |
 |                                                                  |
 *------------------------------------------------------------------*




 ***************************************************************
 *            ANSYS 2020 R1          LEGAL NOTICES             *
 ***************************************************************
 *                                                             *
 * Copyright 1971-2020 ANSYS, Inc.  All rights reserved.       *
 * Unauthorized use, distribution or duplication is            *
 * prohibited.                                                 *
 *                                                             *
 * Ansys is a registered trademark of ANSYS, Inc. or its       *
 * subsidiaries in the United States or other countries.       *
 * See the ANSYS, Inc. online documentation or the ANSYS, Inc. *
 * documentation CD or online help for the complete Legal      *
 * Notice.                                                     *
 *                                                             *
 ***************************************************************
 *                                                             *
 * THIS ANSYS SOFTWARE PRODUCT AND PROGRAM DOCUMENTATION       *
 * INCLUDE TRADE SECRETS AND CONFIDENTIAL AND PROPRIETARY      *
 * PRODUCTS OF ANSYS, INC., ITS SUBSIDIARIES, OR LICENSORS.    *
 * The software products and documentation are furnished by    *
 * ANSYS, Inc. or its subsidiaries under a software license    *
 * agreement that contains provisions concerning               *
 * non-disclosure, copying, length and nature of use,          *
 * compliance with exporting laws, warranties, disclaimers,    *
 * limitations of liability, and remedies, and other           *
 * provisions.  The software products and documentation may be *
 * used, disclosed, transferred, or copied only in accordance  *
 * with the terms and conditions of that software license      *
 * agreement.                                                  *
 *                                                             *
 * ANSYS, Inc. is a UL registered                              *
 * ISO 9001:2015 company.                                      *
 *                                                             *
 ***************************************************************
 *                                                             *
 * This product is subject to U.S. laws governing export and   *
 * re-export.                                                  *
 *                                                             *
 * For U.S. Government users, except as specifically granted   *
 * by the ANSYS, Inc. software license agreement, the use,     *
 * duplication, or disclosure by the United States Government  *
 * is subject to restrictions stated in the ANSYS, Inc.        *
 * software license agreement and FAR 12.212 (for non-DOD      *
 * licenses).                                                  *
 *                                                             *
 ***************************************************************

 2020 R1 
     
 Point Releases and Patches installed:   
     
 Academic Student 2020 R1
 Aqwa 2020 R1
 FENSAP-ICE 2020 R1  


          *****  ANSYS COMMAND LINE ARGUMENTS  *****
  BATCH MODE REQUESTED (-b)    = NOLIST
  INPUT FILE COPY MODE (-c)    = COPY
  DISTRIBUTED MEMORY PARALLEL REQUESTED
       2 PARALLEL PROCESSES REQUESTED WITH SINGLE THREAD PER PROCESS
    TOTAL OF     2 CORES REQUESTED
  DESIGNXPLORER REQUESTED
  INPUT FILE NAME              = C:\Users\AkashLevy\Documents\GitHub\NEM-Relay-CAD\_ProjectScratch\ScrB4EF\dummy.dat
  OUTPUT FILE NAME             = C:\Users\AkashLevy\Documents\GitHub\NEM-Relay-CAD\_ProjectScratch\ScrB4EF\solve.out
  START-UP FILE MODE           = NOREAD
  STOP FILE MODE               = NOREAD

 RELEASE= 2020 R1              BUILD= 20.1      UP20191203   VERSION=WINDOWS x64 
 CURRENT JOBNAME=file0  13:11:09  APR 02, 2020 CP=      0.469


 PARAMETER _DS_PROGRESS =     999.0000000    

 /INPUT FILE= ds.dat  LINE=       0



 *** NOTE ***                            CP =       0.766   TIME= 13:11:09
 The /CONFIG,NOELDB command is not valid in a Distributed ANSYS          
 solution.  Command is ignored.                                          

 *GET  _WALLSTRT  FROM  ACTI  ITEM=TIME WALL  VALUE=  13.1858333    

 TITLE= 
 relay--EM Static Coarse Face (C5)                                             


 SET PARAMETER DIMENSIONS ON  _WB_PROJECTSCRATCH_DIR
  TYPE=STRI  DIMENSIONS=      248        1        1

 PARAMETER _WB_PROJECTSCRATCH_DIR(1) = C:\Users\AkashLevy\Documents\GitHub\NEM-Relay-CAD\_ProjectScratch\ScrB4EF\

 SET PARAMETER DIMENSIONS ON  _WB_SOLVERFILES_DIR
  TYPE=STRI  DIMENSIONS=      248        1        1

 PARAMETER _WB_SOLVERFILES_DIR(1) = C:\Users\AkashLevy\Documents\GitHub\NEM-Relay-CAD\relay_files\dp0\SYS-7\MECH\

 SET PARAMETER DIMENSIONS ON  _WB_USERFILES_DIR
  TYPE=STRI  DIMENSIONS=      248        1        1

 PARAMETER _WB_USERFILES_DIR(1) = C:\Users\AkashLevy\Documents\GitHub\NEM-Relay-CAD\relay_files\user_files\
 --- Data in consistent MKS units. See Solving Units in the help system for more

 MKS UNITS SPECIFIED FOR INTERNAL    
  LENGTH        (l)  = METER (M)
  MASS          (M)  = KILOGRAM (KG)
  TIME          (t)  = SECOND (SEC)
  TEMPERATURE   (T)  = CELSIUS (C)
  TOFFSET            = 273.0
  CHARGE        (Q)  = COULOMB
  FORCE         (f)  = NEWTON (N) (KG-M/SEC2)
  HEAT               = JOULE (N-M)

  PRESSURE           = PASCAL (NEWTON/M**2)
  ENERGY        (W)  = JOULE (N-M)
  POWER         (P)  = WATT (N-M/SEC)
  CURRENT       (i)  = AMPERE (COULOMBS/SEC)
  CAPACITANCE   (C)  = FARAD
  INDUCTANCE    (L)  = HENRY
  MAGNETIC FLUX      = WEBER
  RESISTANCE    (R)  = OHM
  ELECTRIC POTENTIAL = VOLT

 INPUT  UNITS ARE ALSO SET TO MKS 

 *** ANSYS - ENGINEERING ANALYSIS SYSTEM  RELEASE 2020 R1          20.1     ***
 DISTRIBUTED ANSYS Academic Teaching Introductory              

 01055371  VERSION=WINDOWS x64   13:11:09  APR 02, 2020 CP=      0.797

 relay--EM Static Coarse Face (C5)                                             



          ***** ANSYS ANALYSIS DEFINITION (PREP7) *****
 *********** Nodes for the whole assembly ***********
 *********** Elements for Body 1 "relay\Solid" ***********
 *********** Send User Defined Coordinate System(s) ***********
 *********** Set Reference Temperature ***********
 *********** Send Materials ***********
 *********** Fixed Supports ***********
 *********** Create Structural MEMS Load ***********
  
 *** EMTGEN Command Macro
  

 *** NOTE *** Display device has not yet been specified with the /SHOW command.  Display commands ignored. 

  LISTING OF THE DATA ON FILE _emtgen.out
  
  ____________________ EMTGEN MACRO SUMMARY ________________________
  
  Macro has generated successfully 2126 TRANS126 elements.
  
  Component of structural boundary nodes: _CMMEMS293 .
  Component name of generated EMT elements = EMTELM .
  Component name of generated EMT plane nodes = _CM293 .
  Active structural DOF for TRANS126 elements = UZ .
  Initial gap between I and J nodes of EMT element = 1.E-07 .
  Minimal gap between I and J nodes = 4.E-08 .
  Modulus of elasticity for EMT contact stiffness = 1.45E+09 .
  Free-space permittivity value = 8.854E-12 .
  EMT stiffness method = AUGMENTED .
  
  ______________________________________________________________________


 ***** ROUTINE COMPLETED *****  CP =        24.453


 --- Number of total nodes = 12850
 --- Number of contact elements = 0
 --- Number of spring elements = 0
 --- Number of bearing elements = 0
 --- Number of solid elements = 5460
 --- Number of condensed parts = 0
 --- Number of total elements = 7586

 *GET  _WALLBSOL  FROM  ACTI  ITEM=TIME WALL  VALUE=  13.1902778    
 ****************************************************************************
 *************************    SOLUTION       ********************************
 ****************************************************************************

 *****  ANSYS SOLUTION ROUTINE  *****


 PERFORM A STATIC ANALYSIS
  THIS WILL BE A NEW ANALYSIS

 PARAMETER _THICKRATIO =     0.000000000    

 USE SPARSE MATRIX DIRECT SOLVER

 CONTACT INFORMATION PRINTOUT LEVEL       1

 DO NOT COMBINE ELEMENT MATRIX FILES (.emat) AFTER DISTRIBUTED PARALLEL SOLUTION

 DO NOT COMBINE ELEMENT SAVE DATA FILES (.esav) AFTER DISTRIBUTED PARALLEL SOLUTION

 NLDIAG: Nonlinear diagnostics CONT option is set to ON. 
         Writing frequency : each ITERATION.

 DEFINE RESTART CONTROL FOR LOADSTEP LAST
 AT FREQUENCY OF LAST AND NUMBER FOR OVERWRITE IS   -1

 DELETE RESTART FILES OF ENDSTEP
 ****************************************************
 ******************* SOLVE FOR LS 1 OF 100 ****************

 PRINTOUT RESUMED BY /GOP

 SPECIFIED CONSTRAINT VOLT FOR PICKED NODES 
 REAL=_LOADVARI293   IMAG=  0.00000000    

 SPECIFIED CONSTRAINT VOLT FOR PICKED NODES 
 REAL=  0.00000000       IMAG=  0.00000000    

 SPECIFIED CONSTRAINT UX   FOR PICKED NODES 
 REAL=  0.00000000       IMAG=  0.00000000    

 SPECIFIED CONSTRAINT UY   FOR PICKED NODES 
 REAL=  0.00000000       IMAG=  0.00000000    

 SPECIFIED CONSTRAINT UZ   FOR PICKED NODES 
 REAL=  0.00000000       IMAG=  0.00000000    

 ALL SELECT   FOR ITEM=NODE COMPONENT=    
  IN RANGE         1 TO      12850 STEP          1

      12850  NODES (OF      12850  DEFINED) SELECTED BY NSEL  COMMAND.

 ALL SELECT   FOR ITEM=ELEM COMPONENT=    
  IN RANGE         1 TO       7586 STEP          1

       7586  ELEMENTS (OF       7586  DEFINED) SELECTED BY  ESEL  COMMAND.

 USE AUTOMATIC TIME STEPPING THIS LOAD STEP

 USE       1 SUBSTEPS INITIALLY THIS LOAD STEP FOR ALL  DEGREES OF FREEDOM
 FOR AUTOMATIC TIME STEPPING:
   USE     10 SUBSTEPS AS A MAXIMUM
   USE      1 SUBSTEPS AS A MINIMUM

 TIME=  1.0000    

 ERASE THE CURRENT DATABASE OUTPUT CONTROL TABLE.


 WRITE ALL  ITEMS TO THE DATABASE WITH A FREQUENCY OF NONE
   FOR ALL APPLICABLE ENTITIES

 WRITE NSOL ITEMS TO THE DATABASE WITH A FREQUENCY OF ALL 
   FOR ALL APPLICABLE ENTITIES

 WRITE RSOL ITEMS TO THE DATABASE WITH A FREQUENCY OF ALL 
   FOR ALL APPLICABLE ENTITIES

 WRITE EANG ITEMS TO THE DATABASE WITH A FREQUENCY OF ALL 
   FOR ALL APPLICABLE ENTITIES

 WRITE ETMP ITEMS TO THE DATABASE WITH A FREQUENCY OF ALL 
   FOR ALL APPLICABLE ENTITIES

 WRITE VENG ITEMS TO THE DATABASE WITH A FREQUENCY OF ALL 
   FOR ALL APPLICABLE ENTITIES

 WRITE STRS ITEMS TO THE DATABASE WITH A FREQUENCY OF ALL 
   FOR ALL APPLICABLE ENTITIES

 WRITE EPEL ITEMS TO THE DATABASE WITH A FREQUENCY OF ALL 
   FOR ALL APPLICABLE ENTITIES

 WRITE EPPL ITEMS TO THE DATABASE WITH A FREQUENCY OF ALL 
   FOR ALL APPLICABLE ENTITIES

 WRITE CONT ITEMS TO THE DATABASE WITH A FREQUENCY OF ALL 
   FOR ALL APPLICABLE ENTITIES

 CONVERGENCE ON U    BASED ON A REFERENCE VALUE OF 0.1000E-08
   WITH A TOLERANCE OF 0.5000E-02
   USING THE INFINITE NORM (CHECK EACH DEGREE OF FREEDOM SEPARATELY)

 PARAMETER ARG1 =     4.700000000    

 PARAMETER EPSR =     4.700000000    

 FINISH SOLUTION PROCESSING


 ***** ROUTINE COMPLETED *****  CP =        24.891



 *** ANSYS - ENGINEERING ANALYSIS SYSTEM  RELEASE 2020 R1          20.1     ***
 DISTRIBUTED ANSYS Academic Teaching Introductory              

 01055371  VERSION=WINDOWS x64   13:11:26  APR 02, 2020 CP=     24.891

                                                                               



          ***** ANSYS ANALYSIS DEFINITION (PREP7) *****

 SELECT       FOR ITEM=ENAM COMPONENT=    
  IN RANGE       126 TO        126 STEP          1

       2126  ELEMENTS (OF       7586  DEFINED) SELECTED BY  ESEL  COMMAND.

 *GET  NELEMS    FROM  ELEM  ITEM=COUN           VALUE=  2126.00000    

 PARAMETER ELM =     0.000000000    

 *DO LOOP ON PARAMETER= I FROM  1.0000     TO  2126.0     BY  1.0000    

 PARAMETER ELM =     5461.000000    

 *GET  RNUM      FROM  ELEM      5461  ITEM=ATTR REAL      VALUE=  2.00000000    

 *GET  R7        FROM  RCON      2  ITEM=CONS 7     VALUE= 0.136171478E-25

 PARAMETER R7_NEW =    0.6400059456E-25

 MODIFY REAL CONSTANTS FOR SET      2  STARTING WITH  7  NEW VALUES ARE

   0.64001E-25   0.0000       0.0000       0.0000       0.0000       0.0000    

 *ENDDO  INDEX= I                               


 ***** ROUTINE COMPLETED *****  CP =        25.359



 *****  ANSYS SOLUTION ROUTINE  *****

 SELECT ALL ENTITIES OF TYPE= ALL  AND BELOW

 *GET  ANSINTER_  FROM  ACTI  ITEM=INT        VALUE=  0.00000000    

 *IF  ANSINTER_                         ( =   0.00000     )  NE  
      0                                 ( =   0.00000     )  THEN    

 *ENDIF

 *** NOTE ***                            CP =      25.406   TIME= 13:11:26
 The automatic domain decomposition logic has selected the MESH domain   
 decomposition method with 2 processes per solution.                     

 *****  ANSYS SOLVE    COMMAND  *****

 *** NOTE ***                            CP =      25.484   TIME= 13:11:26
 There is no title defined for this analysis.                            

 *** WARNING ***                         CP =      25.500   TIME= 13:11:26
 Element shape checking is currently inactive.  Issue SHPP,ON or         
 SHPP,WARN to reactivate, if desired.                                    

 *** NOTE ***                            CP =      25.641   TIME= 13:11:26
 The model data was checked and warning messages were found.             
  Please review output or errors file (                                  
 C:\Users\AkashLevy\Documents\GitHub\NEM-Relay-CAD\_ProjectScratch\ScrB4 
 4EF\file0.err ) for these warning messages.                             

 *** SELECTION OF ELEMENT TECHNOLOGIES FOR APPLICABLE ELEMENTS ***
      --- GIVE SUGGESTIONS AND RESET THE KEY OPTIONS ---

 ELEMENT TYPE    1 IS SOLID187. IT IS NOT ASSOCIATED WITH FULLY INCOMPRESSIBLE
 HYPERELASTIC MATERIALS. NO SUGGESTION IS AVAILABLE AND NO RESETTING IS NEEDED.



 *** ANSYS - ENGINEERING ANALYSIS SYSTEM  RELEASE 2020 R1          20.1     ***
 DISTRIBUTED ANSYS Academic Teaching Introductory              

 01055371  VERSION=WINDOWS x64   13:11:26  APR 02, 2020 CP=     25.641

                                                                               



                       S O L U T I O N   O P T I O N S

   PROBLEM DIMENSIONALITY. . . . . . . . . . . . .3-D                  
   DEGREES OF FREEDOM. . . . . . UX   UY   UZ   VOLT
   ANALYSIS TYPE . . . . . . . . . . . . . . . . .STATIC (STEADY-STATE)
   OFFSET TEMPERATURE FROM ABSOLUTE ZERO . . . . .  273.15    
   EQUATION SOLVER OPTION. . . . . . . . . . . . .SPARSE             
   NEWTON-RAPHSON OPTION . . . . . . . . . . . . .PROGRAM CHOSEN   
   GLOBALLY ASSEMBLED MATRIX . . . . . . . . . . .UNSYMMETRIC

 *** NOTE ***                            CP =      25.641   TIME= 13:11:26
 The Solution Control Option is only valid for single field structural,  
 single field thermal, single field diffusion, coupled                   
 thermal-diffusion analyses and coupled-field analyses with structural   
 degrees of freedom.  The SOLCONTROL,ON command (if present) has been    
 de-activated.                                                           

 *** NOTE ***                            CP =      25.641   TIME= 13:11:26
 This nonlinear analysis defaults to using the full Newton-Raphson       
 solution procedure.  This can be modified using the NROPT command.      

  
  
     D I S T R I B U T E D   D O M A I N   D E C O M P O S E R
  
  ...Number of elements: 7586
  ...Number of nodes:    12850
  ...Decompose to 2 CPU domains
  ...Element load balance ratio =     1.280


                      L O A D   S T E P   O P T I O N S

   LOAD STEP NUMBER. . . . . . . . . . . . . . . .     1
   TIME AT END OF THE LOAD STEP. . . . . . . . . .  1.0000    
   AUTOMATIC TIME STEPPING . . . . . . . . . . . .    ON
      INITIAL NUMBER OF SUBSTEPS . . . . . . . . .     1
      MAXIMUM NUMBER OF SUBSTEPS . . . . . . . . .    10
      MINIMUM NUMBER OF SUBSTEPS . . . . . . . . .     1
   MAXIMUM NUMBER OF EQUILIBRIUM ITERATIONS. . . .    25
   STEP CHANGE BOUNDARY CONDITIONS . . . . . . . .    NO
   TERMINATE ANALYSIS IF NOT CONVERGED . . . . . .YES (EXIT)  
   CONVERGENCE CONTROLS
      LABEL   REFERENCE    TOLERANCE  NORM     MINREF
       U      0.1000E-08   0.5000E-02   0     -1.000    
   PRINT OUTPUT CONTROLS . . . . . . . . . . . . .NO PRINTOUT
   DATABASE OUTPUT CONTROLS
      ITEM     FREQUENCY   COMPONENT
       ALL       NONE               
      NSOL        ALL               
      RSOL        ALL               
      EANG        ALL               
      ETMP        ALL               
      VENG        ALL               
      STRS        ALL               
      EPEL        ALL               
      EPPL        ALL               
      CONT        ALL               




                         ***********  PRECISE MASS SUMMARY  ***********

   TOTAL RIGID BODY MASS MATRIX ABOUT ORIGIN
               Translational mass               |   Coupled translational/rotational mass
        0.11050E-13    0.0000        0.0000     |     0.0000       0.10498E-20   0.75232E-36
         0.0000       0.11050E-13    0.0000     |   -0.10498E-20    0.0000      -0.18056E-34
         0.0000        0.0000       0.11050E-13 |   -0.75232E-36   0.18056E-34    0.0000    
     ------------------------------------------ | ------------------------------------------
                                                |         Rotational mass (inertia)
                                                |    0.16158E-25   0.35807E-32   0.89190E-40
                                                |    0.35807E-32   0.16158E-25   0.22874E-39
                                                |    0.89235E-40   0.22874E-39   0.32029E-25

   TOTAL MASS = 0.11050E-13
     The mass principal axes coincide with the global Cartesian axes

   CENTER OF MASS (X,Y,Z)=  -0.16340E-20  -0.68085E-22   0.95006E-07

   TOTAL INERTIA ABOUT CENTER OF MASS
        0.16058E-25   0.35807E-32   0.87474E-40
        0.35807E-32   0.16058E-25   0.22867E-39
        0.87474E-40   0.22867E-39   0.32029E-25
     The inertia principal axes coincide with the global Cartesian axes


  *** MASS SUMMARY BY ELEMENT TYPE ***

  TYPE      MASS
     1  0.110497E-13

 Range of element maximum matrix coefficients in global coordinates
 Maximum = 103911.963 at element 3407.                                   
 Minimum = 5195.82996 at element 35.                                     

   *** ELEMENT MATRIX FORMULATION TIMES
     TYPE    NUMBER   ENAME      TOTAL CP  AVE CP

        1      5460  SOLID187      1.344   0.000246
        2      2126  TRANS126      0.078   0.000037
 Time at end of element matrix formulation CP = 26.90625.                

 ALL CURRENT ANSYS DATA WRITTEN TO FILE NAME= file.rdb
  FOR POSSIBLE RESUME FROM THIS POINT
     FORCE CONVERGENCE VALUE  =  0.1137E-21  CRITERION=  0.1000E-02
     CURRENT CONVERGENCE VALUE=   0.000      CRITERION=   0.000    

 DISTRIBUTED SPARSE MATRIX DIRECT SOLVER.
  Number of equations =       31920,    Maximum wavefront =    460

  Local memory allocated for solver              =    117.470 MB
  Local memory required for in-core solution     =     96.477 MB
  Local memory required for out-of-core solution =     39.743 MB

  Total memory allocated for solver              =    230.069 MB
  Total memory required for in-core solution     =    188.971 MB
  Total memory required for out-of-core solution =     78.264 MB

 *** NOTE ***                            CP =      27.578   TIME= 13:11:31
 The Distributed Sparse Matrix Solver is currently running in the        
 in-core memory mode.  This memory mode uses the most amount of memory   
 in order to avoid using the hard drive as much as possible, which most  
 often results in the fastest solution time.  This mode is recommended   
 if enough physical memory is present to accommodate all of the solver   
 data.                                                                   

 *** WARNING ***                         CP =      27.578   TIME= 13:11:31
 Pivoting has been activated for the Distributed Sparse Matrix Solver .  
 The memory required may greatly exceed the predicted amount.  In that   
 event, use the DSPOPTION command to change the memory mode and/or       
 memory size used by the Distributed Sparse Matrix Solver.               

 *** NOTE ***                            CP =      27.578   TIME= 13:11:31
 The system matrix is unsymmetric.                                       
 curEqn=  16251  totEqn=  16251 Job CP sec=     28.734
      Factor Done=  99% Factor Wall sec=      1.034 rate=    2427.4 Mflops
 Distributed sparse solver maximum pivot= 139848.682 at node 6862 UZ.    
 Distributed sparse solver minimum pivot= 12.9241641 at node 487 UZ.     
 Distributed sparse solver minimum pivot in absolute value= 12.9241641   
 at node 487 UZ.                                                         
     DISP CONVERGENCE VALUE   =  0.1973E-21  CRITERION=  0.5000E-11 <<< CONVERGED
    EQUIL ITER   1 COMPLETED.  NEW TRIANG MATRIX.  MAX DOF INC=  0.1000    
     FORCE CONVERGENCE VALUE  =  0.5686E-11  CRITERION=  0.1000E-02 <<< CONVERGED

 *** WARNING ***                         CP =      29.500   TIME= 13:11:36
 A reference force value times the tolerance is used by the              
 Newton-Raphson method for checking convergence.  The calculated         
 reference FORCE CONVERGENCE VALUE = 5.686478095E-12 is less than a      
 threshold.  This threshold defaults to 1.0 or is specified as MINREF    
 on the CNVTOL command.  Check results carefully.                        
     CURRENT CONVERGENCE VALUE=   0.000      CRITERION=   0.000     <<< CONVERGED
    >>> SOLUTION CONVERGED AFTER EQUILIBRIUM ITERATION   1
    >>> SOLUTION CONVERGED AFTER EQUILIBRIUM ITERATION   1

   *** ELEMENT RESULT CALCULATION TIMES
     TYPE    NUMBER   ENAME      TOTAL CP  AVE CP

        1      5460  SOLID187      0.891   0.000163
        2      2126  TRANS126      0.062   0.000029

   *** NODAL LOAD CALCULATION TIMES
     TYPE    NUMBER   ENAME      TOTAL CP  AVE CP

        1      5460  SOLID187      0.172   0.000031
        2      2126  TRANS126      0.031   0.000015
 *** LOAD STEP     1   SUBSTEP     1  COMPLETED.    CUM ITER =      1
 *** TIME =   1.00000         TIME INC =   1.00000    


 *** ANSYS BINARY FILE STATISTICS
  BUFFER SIZE USED= 16384
        0.188 MB WRITTEN ON ELEMENT MATRIX FILE: file0.emat
        9.438 MB WRITTEN ON ELEMENT SAVED DATA FILE: file0.esav
       14.250 MB WRITTEN ON ASSEMBLED MATRIX FILE: file0.full
        2.312 MB WRITTEN ON RESULTS FILE: file0.rst
 *************** Write FE CONNECTORS *********

 WRITE OUT CONSTRAINT EQUATIONS TO FILE= file.ce                                                                                                                                                                                                                                                             
 ****************************************************
 *************** FINISHED SOLVE FOR LS 1 *************
 ****************************************************
 ******************* SOLVE FOR LS 2 OF 100 ****************

 PRINTOUT RESUMED BY /GOP

 USE AUTOMATIC TIME STEPPING THIS LOAD STEP

 USE       1 SUBSTEPS INITIALLY THIS LOAD STEP FOR ALL  DEGREES OF FREEDOM
 FOR AUTOMATIC TIME STEPPING:
   USE     10 SUBSTEPS AS A MAXIMUM
   USE      1 SUBSTEPS AS A MINIMUM

 TIME=  2.0000    

 ERASE THE CURRENT DATABASE OUTPUT CONTROL TABLE.


 WRITE ALL  ITEMS TO THE DATABASE WITH A FREQUENCY OF NONE
   FOR ALL APPLICABLE ENTITIES

 WRITE NSOL ITEMS TO THE DATABASE WITH A FREQUENCY OF ALL 
   FOR ALL APPLICABLE ENTITIES

 WRITE RSOL ITEMS TO THE DATABASE WITH A FREQUENCY OF ALL 
   FOR ALL APPLICABLE ENTITIES

 WRITE EANG ITEMS TO THE DATABASE WITH A FREQUENCY OF ALL 
   FOR ALL APPLICABLE ENTITIES

 WRITE ETMP ITEMS TO THE DATABASE WITH A FREQUENCY OF ALL 
   FOR ALL APPLICABLE ENTITIES

 WRITE VENG ITEMS TO THE DATABASE WITH A FREQUENCY OF ALL 
   FOR ALL APPLICABLE ENTITIES

 WRITE STRS ITEMS TO THE DATABASE WITH A FREQUENCY OF ALL 
   FOR ALL APPLICABLE ENTITIES

 WRITE EPEL ITEMS TO THE DATABASE WITH A FREQUENCY OF ALL 
   FOR ALL APPLICABLE ENTITIES

 WRITE EPPL ITEMS TO THE DATABASE WITH A FREQUENCY OF ALL 
   FOR ALL APPLICABLE ENTITIES

 WRITE CONT ITEMS TO THE DATABASE WITH A FREQUENCY OF ALL 
   FOR ALL APPLICABLE ENTITIES

 *****  ANSYS SOLVE    COMMAND  *****

 *** NOTE ***                            CP =      31.000   TIME= 13:11:38
 The Solution Control Option is only valid for single field structural,  
 single field thermal, single field diffusion, coupled                   
 thermal-diffusion analyses and coupled-field analyses with structural   
 degrees of freedom.  The SOLCONTROL,ON command (if present) has been    
 de-activated.                                                           

 *** NOTE ***                            CP =      31.000   TIME= 13:11:38
 This nonlinear analysis defaults to using the full Newton-Raphson       
 solution procedure.  This can be modified using the NROPT command.      

 *** ANSYS - ENGINEERING ANALYSIS SYSTEM  RELEASE 2020 R1          20.1     ***
 DISTRIBUTED ANSYS Academic Teaching Introductory              

 01055371  VERSION=WINDOWS x64   13:11:39  APR 02, 2020 CP=     31.047

                                                                               



                      L O A D   S T E P   O P T I O N S

   LOAD STEP NUMBER. . . . . . . . . . . . . . . .     2
   TIME AT END OF THE LOAD STEP. . . . . . . . . .  2.0000    
   AUTOMATIC TIME STEPPING . . . . . . . . . . . .    ON
      INITIAL NUMBER OF SUBSTEPS . . . . . . . . .     1
      MAXIMUM NUMBER OF SUBSTEPS . . . . . . . . .    10
      MINIMUM NUMBER OF SUBSTEPS . . . . . . . . .     1
   MAXIMUM NUMBER OF EQUILIBRIUM ITERATIONS. . . .    25
   STEP CHANGE BOUNDARY CONDITIONS . . . . . . . .    NO
   TERMINATE ANALYSIS IF NOT CONVERGED . . . . . .YES (EXIT)  
   CONVERGENCE CONTROLS
      LABEL   REFERENCE    TOLERANCE  NORM     MINREF
       U      0.1000E-08   0.5000E-02   0     -1.000    
   PRINT OUTPUT CONTROLS . . . . . . . . . . . . .NO PRINTOUT
   DATABASE OUTPUT CONTROLS
      ITEM     FREQUENCY   COMPONENT
       ALL       NONE               
      NSOL        ALL               
      RSOL        ALL               
      EANG        ALL               
      ETMP        ALL               
      VENG        ALL               
      STRS        ALL               
      EPEL        ALL               
      EPPL        ALL               
      CONT        ALL               


     FORCE CONVERGENCE VALUE  =  0.1706E-10  CRITERION=  0.1000E-02
     CURRENT CONVERGENCE VALUE=   0.000      CRITERION=   0.000    
     DISP CONVERGENCE VALUE   =  0.2960E-10  CRITERION=  0.5000E-11
    EQUIL ITER   1 COMPLETED.  NEW TRIANG MATRIX.  MAX DOF INC=  0.1000    
     FORCE CONVERGENCE VALUE  =  0.5700E-11  CRITERION=  0.1000E-02 <<< CONVERGED

 *** WARNING ***                         CP =      33.641   TIME= 13:11:41
 A reference force value times the tolerance is used by the              
 Newton-Raphson method for checking convergence.  The calculated         
 reference FORCE CONVERGENCE VALUE = 1.26753069E-09 is less than a       
 threshold.  This threshold defaults to 1.0 or is specified as MINREF    
 on the CNVTOL command.  Check results carefully.                        
     CURRENT CONVERGENCE VALUE=   0.000      CRITERION=   0.000     <<< CONVERGED
     DISP CONVERGENCE VALUE   =  0.9889E-11  CRITERION=  0.5000E-11
    EQUIL ITER   2 COMPLETED.  NEW TRIANG MATRIX.  MAX DOF INC=  0.9889E-11
     FORCE CONVERGENCE VALUE  =  0.4432E-14  CRITERION=  0.1000E-02 <<< CONVERGED
     CURRENT CONVERGENCE VALUE=   0.000      CRITERION=   0.000     <<< CONVERGED
     DISP CONVERGENCE VALUE   =  0.7701E-14  CRITERION=  0.5000E-11 <<< CONVERGED
    EQUIL ITER   3 COMPLETED.  NEW TRIANG MATRIX.  MAX DOF INC =  0.7701E-14
    >>> SOLUTION CONVERGED AFTER EQUILIBRIUM ITERATION   3
    >>> SOLUTION CONVERGED AFTER EQUILIBRIUM ITERATION   3
 *** LOAD STEP     2   SUBSTEP     1  COMPLETED.    CUM ITER =      4
 *** TIME =   2.00000         TIME INC =   1.00000    
 ****************************************************
 *************** FINISHED SOLVE FOR LS 2 *************
 ****************************************************
 ******************* SOLVE FOR LS 3 OF 100 ****************

 PRINTOUT RESUMED BY /GOP

 USE AUTOMATIC TIME STEPPING THIS LOAD STEP

 USE       1 SUBSTEPS INITIALLY THIS LOAD STEP FOR ALL  DEGREES OF FREEDOM
 FOR AUTOMATIC TIME STEPPING:
   USE     10 SUBSTEPS AS A MAXIMUM
   USE      1 SUBSTEPS AS A MINIMUM

 TIME=  3.0000    

 ERASE THE CURRENT DATABASE OUTPUT CONTROL TABLE.


 WRITE ALL  ITEMS TO THE DATABASE WITH A FREQUENCY OF NONE
   FOR ALL APPLICABLE ENTITIES

 WRITE NSOL ITEMS TO THE DATABASE WITH A FREQUENCY OF ALL 
   FOR ALL APPLICABLE ENTITIES

 WRITE RSOL ITEMS TO THE DATABASE WITH A FREQUENCY OF ALL 
   FOR ALL APPLICABLE ENTITIES

 WRITE EANG ITEMS TO THE DATABASE WITH A FREQUENCY OF ALL 
   FOR ALL APPLICABLE ENTITIES

 WRITE ETMP ITEMS TO THE DATABASE WITH A FREQUENCY OF ALL 
   FOR ALL APPLICABLE ENTITIES

 WRITE VENG ITEMS TO THE DATABASE WITH A FREQUENCY OF ALL 
   FOR ALL APPLICABLE ENTITIES

 WRITE STRS ITEMS TO THE DATABASE WITH A FREQUENCY OF ALL 
   FOR ALL APPLICABLE ENTITIES

 WRITE EPEL ITEMS TO THE DATABASE WITH A FREQUENCY OF ALL 
   FOR ALL APPLICABLE ENTITIES

 WRITE EPPL ITEMS TO THE DATABASE WITH A FREQUENCY OF ALL 
   FOR ALL APPLICABLE ENTITIES

 WRITE CONT ITEMS TO THE DATABASE WITH A FREQUENCY OF ALL 
   FOR ALL APPLICABLE ENTITIES

 *****  ANSYS SOLVE    COMMAND  *****

 *** NOTE ***                            CP =      38.000   TIME= 13:11:46
 The Solution Control Option is only valid for single field structural,  
 single field thermal, single field diffusion, coupled                   
 thermal-diffusion analyses and coupled-field analyses with structural   
 degrees of freedom.  The SOLCONTROL,ON command (if present) has been    
 de-activated.                                                           

 *** NOTE ***                            CP =      38.000   TIME= 13:11:46
 This nonlinear analysis defaults to using the full Newton-Raphson       
 solution procedure.  This can be modified using the NROPT command.      

 *** ANSYS - ENGINEERING ANALYSIS SYSTEM  RELEASE 2020 R1          20.1     ***
 DISTRIBUTED ANSYS Academic Teaching Introductory              

 01055371  VERSION=WINDOWS x64   13:11:46  APR 02, 2020 CP=     38.094

                                                                               



                      L O A D   S T E P   O P T I O N S

   LOAD STEP NUMBER. . . . . . . . . . . . . . . .     3
   TIME AT END OF THE LOAD STEP. . . . . . . . . .  3.0000    
   AUTOMATIC TIME STEPPING . . . . . . . . . . . .    ON
      INITIAL NUMBER OF SUBSTEPS . . . . . . . . .     1
      MAXIMUM NUMBER OF SUBSTEPS . . . . . . . . .    10
      MINIMUM NUMBER OF SUBSTEPS . . . . . . . . .     1
   MAXIMUM NUMBER OF EQUILIBRIUM ITERATIONS. . . .    25
   STEP CHANGE BOUNDARY CONDITIONS . . . . . . . .    NO
   TERMINATE ANALYSIS IF NOT CONVERGED . . . . . .YES (EXIT)  
   CONVERGENCE CONTROLS
      LABEL   REFERENCE    TOLERANCE  NORM     MINREF
       U      0.1000E-08   0.5000E-02   0     -1.000    
   PRINT OUTPUT CONTROLS . . . . . . . . . . . . .NO PRINTOUT
   DATABASE OUTPUT CONTROLS
      ITEM     FREQUENCY   COMPONENT
       ALL       NONE               
      NSOL        ALL               
      RSOL        ALL               
      EANG        ALL               
      ETMP        ALL               
      VENG        ALL               
      STRS        ALL               
      EPEL        ALL               
      EPPL        ALL               
      CONT        ALL               


     FORCE CONVERGENCE VALUE  =  0.2276E-10  CRITERION=  0.1000E-02
     CURRENT CONVERGENCE VALUE=   0.000      CRITERION=   0.000    
     DISP CONVERGENCE VALUE   =  0.3950E-10  CRITERION=  0.5000E-11
    EQUIL ITER   1 COMPLETED.  NEW TRIANG MATRIX.  MAX DOF INC=  0.1000    
     FORCE CONVERGENCE VALUE  =  0.5731E-11  CRITERION=  0.1000E-02 <<< CONVERGED

 *** WARNING ***                         CP =      40.953   TIME= 13:11:49
 A reference force value times the tolerance is used by the              
 Newton-Raphson method for checking convergence.  The calculated         
 reference FORCE CONVERGENCE VALUE = 3.382554861E-09 is less than a      
 threshold.  This threshold defaults to 1.0 or is specified as MINREF    
 on the CNVTOL command.  Check results carefully.                        
     CURRENT CONVERGENCE VALUE=   0.000      CRITERION=   0.000     <<< CONVERGED
     DISP CONVERGENCE VALUE   =  0.9943E-11  CRITERION=  0.5000E-11
    EQUIL ITER   2 COMPLETED.  NEW TRIANG MATRIX.  MAX DOF INC=  0.9943E-11
     FORCE CONVERGENCE VALUE  =  0.1004E-13  CRITERION=  0.1000E-02 <<< CONVERGED
     CURRENT CONVERGENCE VALUE=   0.000      CRITERION=   0.000     <<< CONVERGED
     DISP CONVERGENCE VALUE   =  0.1745E-13  CRITERION=  0.5000E-11 <<< CONVERGED
    EQUIL ITER   3 COMPLETED.  NEW TRIANG MATRIX.  MAX DOF INC =  0.1745E-13
    >>> SOLUTION CONVERGED AFTER EQUILIBRIUM ITERATION   3
    >>> SOLUTION CONVERGED AFTER EQUILIBRIUM ITERATION   3
 *** LOAD STEP     3   SUBSTEP     1  COMPLETED.    CUM ITER =      7
 *** TIME =   3.00000         TIME INC =   1.00000    
 ****************************************************
 *************** FINISHED SOLVE FOR LS 3 *************
 ****************************************************
 ******************* SOLVE FOR LS 4 OF 100 ****************

 PRINTOUT RESUMED BY /GOP

 USE AUTOMATIC TIME STEPPING THIS LOAD STEP

 USE       1 SUBSTEPS INITIALLY THIS LOAD STEP FOR ALL  DEGREES OF FREEDOM
 FOR AUTOMATIC TIME STEPPING:
   USE     10 SUBSTEPS AS A MAXIMUM
   USE      1 SUBSTEPS AS A MINIMUM

 TIME=  4.0000    

 ERASE THE CURRENT DATABASE OUTPUT CONTROL TABLE.


 WRITE ALL  ITEMS TO THE DATABASE WITH A FREQUENCY OF NONE
   FOR ALL APPLICABLE ENTITIES

 WRITE NSOL ITEMS TO THE DATABASE WITH A FREQUENCY OF ALL 
   FOR ALL APPLICABLE ENTITIES

 WRITE RSOL ITEMS TO THE DATABASE WITH A FREQUENCY OF ALL 
   FOR ALL APPLICABLE ENTITIES

 WRITE EANG ITEMS TO THE DATABASE WITH A FREQUENCY OF ALL 
   FOR ALL APPLICABLE ENTITIES

 WRITE ETMP ITEMS TO THE DATABASE WITH A FREQUENCY OF ALL 
   FOR ALL APPLICABLE ENTITIES

 WRITE VENG ITEMS TO THE DATABASE WITH A FREQUENCY OF ALL 
   FOR ALL APPLICABLE ENTITIES

 WRITE STRS ITEMS TO THE DATABASE WITH A FREQUENCY OF ALL 
   FOR ALL APPLICABLE ENTITIES

 WRITE EPEL ITEMS TO THE DATABASE WITH A FREQUENCY OF ALL 
   FOR ALL APPLICABLE ENTITIES

 WRITE EPPL ITEMS TO THE DATABASE WITH A FREQUENCY OF ALL 
   FOR ALL APPLICABLE ENTITIES

 WRITE CONT ITEMS TO THE DATABASE WITH A FREQUENCY OF ALL 
   FOR ALL APPLICABLE ENTITIES

 *****  ANSYS SOLVE    COMMAND  *****

 *** NOTE ***                            CP =      45.391   TIME= 13:11:53
 The Solution Control Option is only valid for single field structural,  
 single field thermal, single field diffusion, coupled                   
 thermal-diffusion analyses and coupled-field analyses with structural   
 degrees of freedom.  The SOLCONTROL,ON command (if present) has been    
 de-activated.                                                           

 *** NOTE ***                            CP =      45.391   TIME= 13:11:53
 This nonlinear analysis defaults to using the full Newton-Raphson       
 solution procedure.  This can be modified using the NROPT command.      

 *** ANSYS - ENGINEERING ANALYSIS SYSTEM  RELEASE 2020 R1          20.1     ***
 DISTRIBUTED ANSYS Academic Teaching Introductory              

 01055371  VERSION=WINDOWS x64   13:11:54  APR 02, 2020 CP=     45.484

                                                                               



                      L O A D   S T E P   O P T I O N S

   LOAD STEP NUMBER. . . . . . . . . . . . . . . .     4
   TIME AT END OF THE LOAD STEP. . . . . . . . . .  4.0000    
   AUTOMATIC TIME STEPPING . . . . . . . . . . . .    ON
      INITIAL NUMBER OF SUBSTEPS . . . . . . . . .     1
      MAXIMUM NUMBER OF SUBSTEPS . . . . . . . . .    10
      MINIMUM NUMBER OF SUBSTEPS . . . . . . . . .     1
   MAXIMUM NUMBER OF EQUILIBRIUM ITERATIONS. . . .    25
   STEP CHANGE BOUNDARY CONDITIONS . . . . . . . .    NO
   TERMINATE ANALYSIS IF NOT CONVERGED . . . . . .YES (EXIT)  
   CONVERGENCE CONTROLS
      LABEL   REFERENCE    TOLERANCE  NORM     MINREF
       U      0.1000E-08   0.5000E-02   0     -1.000    
   PRINT OUTPUT CONTROLS . . . . . . . . . . . . .NO PRINTOUT
   DATABASE OUTPUT CONTROLS
      ITEM     FREQUENCY   COMPONENT
       ALL       NONE               
      NSOL        ALL               
      RSOL        ALL               
      EANG        ALL               
      ETMP        ALL               
      VENG        ALL               
      STRS        ALL               
      EPEL        ALL               
      EPPL        ALL               
      CONT        ALL               


     FORCE CONVERGENCE VALUE  =  0.3418E-10  CRITERION=  0.1000E-02
     CURRENT CONVERGENCE VALUE=   0.000      CRITERION=   0.000    
     DISP CONVERGENCE VALUE   =  0.5930E-10  CRITERION=  0.5000E-11
    EQUIL ITER   1 COMPLETED.  NEW TRIANG MATRIX.  MAX DOF INC=  0.1000    
     FORCE CONVERGENCE VALUE  =  0.5803E-11  CRITERION=  0.1000E-02 <<< CONVERGED

 *** WARNING ***                         CP =      48.047   TIME= 13:11:57
 A reference force value times the tolerance is used by the              
 Newton-Raphson method for checking convergence.  The calculated         
 reference FORCE CONVERGENCE VALUE = 6.348399871E-09 is less than a      
 threshold.  This threshold defaults to 1.0 or is specified as MINREF    
 on the CNVTOL command.  Check results carefully.                        
     CURRENT CONVERGENCE VALUE=   0.000      CRITERION=   0.000     <<< CONVERGED
     DISP CONVERGENCE VALUE   =  0.1007E-10  CRITERION=  0.5000E-11
    EQUIL ITER   2 COMPLETED.  NEW TRIANG MATRIX.  MAX DOF INC=  0.1007E-10
     FORCE CONVERGENCE VALUE  =  0.1811E-13  CRITERION=  0.1000E-02 <<< CONVERGED
     CURRENT CONVERGENCE VALUE=   0.000      CRITERION=   0.000     <<< CONVERGED
     DISP CONVERGENCE VALUE   =  0.3147E-13  CRITERION=  0.5000E-11 <<< CONVERGED
    EQUIL ITER   3 COMPLETED.  NEW TRIANG MATRIX.  MAX DOF INC =  0.3147E-13
    >>> SOLUTION CONVERGED AFTER EQUILIBRIUM ITERATION   3
    >>> SOLUTION CONVERGED AFTER EQUILIBRIUM ITERATION   3
 *** LOAD STEP     4   SUBSTEP     1  COMPLETED.    CUM ITER =     10
 *** TIME =   4.00000         TIME INC =   1.00000    
 ****************************************************
 *************** FINISHED SOLVE FOR LS 4 *************
 ****************************************************
 ******************* SOLVE FOR LS 5 OF 100 ****************

 PRINTOUT RESUMED BY /GOP

 USE AUTOMATIC TIME STEPPING THIS LOAD STEP

 USE       1 SUBSTEPS INITIALLY THIS LOAD STEP FOR ALL  DEGREES OF FREEDOM
 FOR AUTOMATIC TIME STEPPING:
   USE     10 SUBSTEPS AS A MAXIMUM
   USE      1 SUBSTEPS AS A MINIMUM

 TIME=  5.0000    

 ERASE THE CURRENT DATABASE OUTPUT CONTROL TABLE.


 WRITE ALL  ITEMS TO THE DATABASE WITH A FREQUENCY OF NONE
   FOR ALL APPLICABLE ENTITIES

 WRITE NSOL ITEMS TO THE DATABASE WITH A FREQUENCY OF ALL 
   FOR ALL APPLICABLE ENTITIES

 WRITE RSOL ITEMS TO THE DATABASE WITH A FREQUENCY OF ALL 
   FOR ALL APPLICABLE ENTITIES

 WRITE EANG ITEMS TO THE DATABASE WITH A FREQUENCY OF ALL 
   FOR ALL APPLICABLE ENTITIES

 WRITE ETMP ITEMS TO THE DATABASE WITH A FREQUENCY OF ALL 
   FOR ALL APPLICABLE ENTITIES

 WRITE VENG ITEMS TO THE DATABASE WITH A FREQUENCY OF ALL 
   FOR ALL APPLICABLE ENTITIES

 WRITE STRS ITEMS TO THE DATABASE WITH A FREQUENCY OF ALL 
   FOR ALL APPLICABLE ENTITIES

 WRITE EPEL ITEMS TO THE DATABASE WITH A FREQUENCY OF ALL 
   FOR ALL APPLICABLE ENTITIES

 WRITE EPPL ITEMS TO THE DATABASE WITH A FREQUENCY OF ALL 
   FOR ALL APPLICABLE ENTITIES

 WRITE CONT ITEMS TO THE DATABASE WITH A FREQUENCY OF ALL 
   FOR ALL APPLICABLE ENTITIES

 *****  ANSYS SOLVE    COMMAND  *****

 *** NOTE ***                            CP =      52.469   TIME= 13:12:02
 The Solution Control Option is only valid for single field structural,  
 single field thermal, single field diffusion, coupled                   
 thermal-diffusion analyses and coupled-field analyses with structural   
 degrees of freedom.  The SOLCONTROL,ON command (if present) has been    
 de-activated.                                                           

 *** NOTE ***                            CP =      52.469   TIME= 13:12:02
 This nonlinear analysis defaults to using the full Newton-Raphson       
 solution procedure.  This can be modified using the NROPT command.      

 *** ANSYS - ENGINEERING ANALYSIS SYSTEM  RELEASE 2020 R1          20.1     ***
 DISTRIBUTED ANSYS Academic Teaching Introductory              

 01055371  VERSION=WINDOWS x64   13:12:02  APR 02, 2020 CP=     52.578

                                                                               



                      L O A D   S T E P   O P T I O N S

   LOAD STEP NUMBER. . . . . . . . . . . . . . . .     5
   TIME AT END OF THE LOAD STEP. . . . . . . . . .  5.0000    
   AUTOMATIC TIME STEPPING . . . . . . . . . . . .    ON
      INITIAL NUMBER OF SUBSTEPS . . . . . . . . .     1
      MAXIMUM NUMBER OF SUBSTEPS . . . . . . . . .    10
      MINIMUM NUMBER OF SUBSTEPS . . . . . . . . .     1
   MAXIMUM NUMBER OF EQUILIBRIUM ITERATIONS. . . .    25
   STEP CHANGE BOUNDARY CONDITIONS . . . . . . . .    NO
   TERMINATE ANALYSIS IF NOT CONVERGED . . . . . .YES (EXIT)  
   CONVERGENCE CONTROLS
      LABEL   REFERENCE    TOLERANCE  NORM     MINREF
       U      0.1000E-08   0.5000E-02   0     -1.000    
   PRINT OUTPUT CONTROLS . . . . . . . . . . . . .NO PRINTOUT
   DATABASE OUTPUT CONTROLS
      ITEM     FREQUENCY   COMPONENT
       ALL       NONE               
      NSOL        ALL               
      RSOL        ALL               
      EANG        ALL               
      ETMP        ALL               
      VENG        ALL               
      STRS        ALL               
      EPEL        ALL               
      EPPL        ALL               
      CONT        ALL               


     FORCE CONVERGENCE VALUE  =  0.4563E-10  CRITERION=  0.1000E-02
     CURRENT CONVERGENCE VALUE=   0.000      CRITERION=   0.000    
     DISP CONVERGENCE VALUE   =  0.7918E-10  CRITERION=  0.5000E-11
    EQUIL ITER   1 COMPLETED.  NEW TRIANG MATRIX.  MAX DOF INC=  0.1000    
     FORCE CONVERGENCE VALUE  =  0.5927E-11  CRITERION=  0.1000E-02 <<< CONVERGED

 *** WARNING ***                         CP =      55.109   TIME= 13:12:04
 A reference force value times the tolerance is used by the              
 Newton-Raphson method for checking convergence.  The calculated         
 reference FORCE CONVERGENCE VALUE = 1.017129775E-08 is less than a      
 threshold.  This threshold defaults to 1.0 or is specified as MINREF    
 on the CNVTOL command.  Check results carefully.                        
     CURRENT CONVERGENCE VALUE=   0.000      CRITERION=   0.000     <<< CONVERGED
     DISP CONVERGENCE VALUE   =  0.1028E-10  CRITERION=  0.5000E-11
    EQUIL ITER   2 COMPLETED.  NEW TRIANG MATRIX.  MAX DOF INC=  0.1028E-10
     FORCE CONVERGENCE VALUE  =  0.2898E-13  CRITERION=  0.1000E-02 <<< CONVERGED
     CURRENT CONVERGENCE VALUE=   0.000      CRITERION=   0.000     <<< CONVERGED
     DISP CONVERGENCE VALUE   =  0.5036E-13  CRITERION=  0.5000E-11 <<< CONVERGED
    EQUIL ITER   3 COMPLETED.  NEW TRIANG MATRIX.  MAX DOF INC =  0.5036E-13
    >>> SOLUTION CONVERGED AFTER EQUILIBRIUM ITERATION   3
    >>> SOLUTION CONVERGED AFTER EQUILIBRIUM ITERATION   3
 *** LOAD STEP     5   SUBSTEP     1  COMPLETED.    CUM ITER =     13
 *** TIME =   5.00000         TIME INC =   1.00000    
 ****************************************************
 *************** FINISHED SOLVE FOR LS 5 *************
 ****************************************************
 ******************* SOLVE FOR LS 6 OF 100 ****************

 PRINTOUT RESUMED BY /GOP

 USE AUTOMATIC TIME STEPPING THIS LOAD STEP

 USE       1 SUBSTEPS INITIALLY THIS LOAD STEP FOR ALL  DEGREES OF FREEDOM
 FOR AUTOMATIC TIME STEPPING:
   USE     10 SUBSTEPS AS A MAXIMUM
   USE      1 SUBSTEPS AS A MINIMUM

 TIME=  6.0000    

 ERASE THE CURRENT DATABASE OUTPUT CONTROL TABLE.


 WRITE ALL  ITEMS TO THE DATABASE WITH A FREQUENCY OF NONE
   FOR ALL APPLICABLE ENTITIES

 WRITE NSOL ITEMS TO THE DATABASE WITH A FREQUENCY OF ALL 
   FOR ALL APPLICABLE ENTITIES

 WRITE RSOL ITEMS TO THE DATABASE WITH A FREQUENCY OF ALL 
   FOR ALL APPLICABLE ENTITIES

 WRITE EANG ITEMS TO THE DATABASE WITH A FREQUENCY OF ALL 
   FOR ALL APPLICABLE ENTITIES

 WRITE ETMP ITEMS TO THE DATABASE WITH A FREQUENCY OF ALL 
   FOR ALL APPLICABLE ENTITIES

 WRITE VENG ITEMS TO THE DATABASE WITH A FREQUENCY OF ALL 
   FOR ALL APPLICABLE ENTITIES

 WRITE STRS ITEMS TO THE DATABASE WITH A FREQUENCY OF ALL 
   FOR ALL APPLICABLE ENTITIES

 WRITE EPEL ITEMS TO THE DATABASE WITH A FREQUENCY OF ALL 
   FOR ALL APPLICABLE ENTITIES

 WRITE EPPL ITEMS TO THE DATABASE WITH A FREQUENCY OF ALL 
   FOR ALL APPLICABLE ENTITIES

 WRITE CONT ITEMS TO THE DATABASE WITH A FREQUENCY OF ALL 
   FOR ALL APPLICABLE ENTITIES

 *****  ANSYS SOLVE    COMMAND  *****

 *** NOTE ***                            CP =      59.484   TIME= 13:12:09
 The Solution Control Option is only valid for single field structural,  
 single field thermal, single field diffusion, coupled                   
 thermal-diffusion analyses and coupled-field analyses with structural   
 degrees of freedom.  The SOLCONTROL,ON command (if present) has been    
 de-activated.                                                           

 *** NOTE ***                            CP =      59.484   TIME= 13:12:09
 This nonlinear analysis defaults to using the full Newton-Raphson       
 solution procedure.  This can be modified using the NROPT command.      

 *** ANSYS - ENGINEERING ANALYSIS SYSTEM  RELEASE 2020 R1          20.1     ***
 DISTRIBUTED ANSYS Academic Teaching Introductory              

 01055371  VERSION=WINDOWS x64   13:12:09  APR 02, 2020 CP=     59.594

                                                                               



                      L O A D   S T E P   O P T I O N S

   LOAD STEP NUMBER. . . . . . . . . . . . . . . .     6
   TIME AT END OF THE LOAD STEP. . . . . . . . . .  6.0000    
   AUTOMATIC TIME STEPPING . . . . . . . . . . . .    ON
      INITIAL NUMBER OF SUBSTEPS . . . . . . . . .     1
      MAXIMUM NUMBER OF SUBSTEPS . . . . . . . . .    10
      MINIMUM NUMBER OF SUBSTEPS . . . . . . . . .     1
   MAXIMUM NUMBER OF EQUILIBRIUM ITERATIONS. . . .    25
   STEP CHANGE BOUNDARY CONDITIONS . . . . . . . .    NO
   TERMINATE ANALYSIS IF NOT CONVERGED . . . . . .YES (EXIT)  
   CONVERGENCE CONTROLS
      LABEL   REFERENCE    TOLERANCE  NORM     MINREF
       U      0.1000E-08   0.5000E-02   0     -1.000    
   PRINT OUTPUT CONTROLS . . . . . . . . . . . . .NO PRINTOUT
   DATABASE OUTPUT CONTROLS
      ITEM     FREQUENCY   COMPONENT
       ALL       NONE               
      NSOL        ALL               
      RSOL        ALL               
      EANG        ALL               
      ETMP        ALL               
      VENG        ALL               
      STRS        ALL               
      EPEL        ALL               
      EPPL        ALL               
      CONT        ALL               


     FORCE CONVERGENCE VALUE  =  0.5714E-10  CRITERION=  0.1000E-02
     CURRENT CONVERGENCE VALUE=   0.000      CRITERION=   0.000    
     DISP CONVERGENCE VALUE   =  0.9915E-10  CRITERION=  0.5000E-11
    EQUIL ITER   1 COMPLETED.  NEW TRIANG MATRIX.  MAX DOF INC=  0.1000    
     FORCE CONVERGENCE VALUE  =  0.6117E-11  CRITERION=  0.1000E-02 <<< CONVERGED

 *** WARNING ***                         CP =      62.266   TIME= 13:12:12
 A reference force value times the tolerance is used by the              
 Newton-Raphson method for checking convergence.  The calculated         
 reference FORCE CONVERGENCE VALUE = 1.485932398E-08 is less than a      
 threshold.  This threshold defaults to 1.0 or is specified as MINREF    
 on the CNVTOL command.  Check results carefully.                        
     CURRENT CONVERGENCE VALUE=   0.000      CRITERION=   0.000     <<< CONVERGED
     DISP CONVERGENCE VALUE   =  0.1061E-10  CRITERION=  0.5000E-11
    EQUIL ITER   2 COMPLETED.  NEW TRIANG MATRIX.  MAX DOF INC=  0.1061E-10
     FORCE CONVERGENCE VALUE  =  0.4322E-13  CRITERION=  0.1000E-02 <<< CONVERGED
     CURRENT CONVERGENCE VALUE=   0.000      CRITERION=   0.000     <<< CONVERGED
     DISP CONVERGENCE VALUE   =  0.7509E-13  CRITERION=  0.5000E-11 <<< CONVERGED
    EQUIL ITER   3 COMPLETED.  NEW TRIANG MATRIX.  MAX DOF INC =  0.7509E-13
    >>> SOLUTION CONVERGED AFTER EQUILIBRIUM ITERATION   3
    >>> SOLUTION CONVERGED AFTER EQUILIBRIUM ITERATION   3
 *** LOAD STEP     6   SUBSTEP     1  COMPLETED.    CUM ITER =     16
 *** TIME =   6.00000         TIME INC =   1.00000    
 ****************************************************
 *************** FINISHED SOLVE FOR LS 6 *************
 ****************************************************
 ******************* SOLVE FOR LS 7 OF 100 ****************

 PRINTOUT RESUMED BY /GOP

 USE AUTOMATIC TIME STEPPING THIS LOAD STEP

 USE       1 SUBSTEPS INITIALLY THIS LOAD STEP FOR ALL  DEGREES OF FREEDOM
 FOR AUTOMATIC TIME STEPPING:
   USE     10 SUBSTEPS AS A MAXIMUM
   USE      1 SUBSTEPS AS A MINIMUM

 TIME=  7.0000    

 ERASE THE CURRENT DATABASE OUTPUT CONTROL TABLE.


 WRITE ALL  ITEMS TO THE DATABASE WITH A FREQUENCY OF NONE
   FOR ALL APPLICABLE ENTITIES

 WRITE NSOL ITEMS TO THE DATABASE WITH A FREQUENCY OF ALL 
   FOR ALL APPLICABLE ENTITIES

 WRITE RSOL ITEMS TO THE DATABASE WITH A FREQUENCY OF ALL 
   FOR ALL APPLICABLE ENTITIES

 WRITE EANG ITEMS TO THE DATABASE WITH A FREQUENCY OF ALL 
   FOR ALL APPLICABLE ENTITIES

 WRITE ETMP ITEMS TO THE DATABASE WITH A FREQUENCY OF ALL 
   FOR ALL APPLICABLE ENTITIES

 WRITE VENG ITEMS TO THE DATABASE WITH A FREQUENCY OF ALL 
   FOR ALL APPLICABLE ENTITIES

 WRITE STRS ITEMS TO THE DATABASE WITH A FREQUENCY OF ALL 
   FOR ALL APPLICABLE ENTITIES

 WRITE EPEL ITEMS TO THE DATABASE WITH A FREQUENCY OF ALL 
   FOR ALL APPLICABLE ENTITIES

 WRITE EPPL ITEMS TO THE DATABASE WITH A FREQUENCY OF ALL 
   FOR ALL APPLICABLE ENTITIES

 WRITE CONT ITEMS TO THE DATABASE WITH A FREQUENCY OF ALL 
   FOR ALL APPLICABLE ENTITIES

 *****  ANSYS SOLVE    COMMAND  *****

 *** NOTE ***                            CP =      66.609   TIME= 13:12:16
 The Solution Control Option is only valid for single field structural,  
 single field thermal, single field diffusion, coupled                   
 thermal-diffusion analyses and coupled-field analyses with structural   
 degrees of freedom.  The SOLCONTROL,ON command (if present) has been    
 de-activated.                                                           

 *** NOTE ***                            CP =      66.609   TIME= 13:12:16
 This nonlinear analysis defaults to using the full Newton-Raphson       
 solution procedure.  This can be modified using the NROPT command.      

 *** ANSYS - ENGINEERING ANALYSIS SYSTEM  RELEASE 2020 R1          20.1     ***
 DISTRIBUTED ANSYS Academic Teaching Introductory              

 01055371  VERSION=WINDOWS x64   13:12:16  APR 02, 2020 CP=     66.719

                                                                               



                      L O A D   S T E P   O P T I O N S

   LOAD STEP NUMBER. . . . . . . . . . . . . . . .     7
   TIME AT END OF THE LOAD STEP. . . . . . . . . .  7.0000    
   AUTOMATIC TIME STEPPING . . . . . . . . . . . .    ON
      INITIAL NUMBER OF SUBSTEPS . . . . . . . . .     1
      MAXIMUM NUMBER OF SUBSTEPS . . . . . . . . .    10
      MINIMUM NUMBER OF SUBSTEPS . . . . . . . . .     1
   MAXIMUM NUMBER OF EQUILIBRIUM ITERATIONS. . . .    25
   STEP CHANGE BOUNDARY CONDITIONS . . . . . . . .    NO
   TERMINATE ANALYSIS IF NOT CONVERGED . . . . . .YES (EXIT)  
   CONVERGENCE CONTROLS
      LABEL   REFERENCE    TOLERANCE  NORM     MINREF
       U      0.1000E-08   0.5000E-02   0     -1.000    
   PRINT OUTPUT CONTROLS . . . . . . . . . . . . .NO PRINTOUT
   DATABASE OUTPUT CONTROLS
      ITEM     FREQUENCY   COMPONENT
       ALL       NONE               
      NSOL        ALL               
      RSOL        ALL               
      EANG        ALL               
      ETMP        ALL               
      VENG        ALL               
      STRS        ALL               
      EPEL        ALL               
      EPPL        ALL               
      CONT        ALL               


     FORCE CONVERGENCE VALUE  =  0.6872E-10  CRITERION=  0.1000E-02
     CURRENT CONVERGENCE VALUE=   0.000      CRITERION=   0.000    
     DISP CONVERGENCE VALUE   =  0.1192E-09  CRITERION=  0.5000E-11
    EQUIL ITER   1 COMPLETED.  NEW TRIANG MATRIX.  MAX DOF INC=  0.1000    
     FORCE CONVERGENCE VALUE  =  0.6389E-11  CRITERION=  0.1000E-02 <<< CONVERGED

 *** WARNING ***                         CP =      69.344   TIME= 13:12:19
 A reference force value times the tolerance is used by the              
 Newton-Raphson method for checking convergence.  The calculated         
 reference FORCE CONVERGENCE VALUE = 2.042272223E-08 is less than a      
 threshold.  This threshold defaults to 1.0 or is specified as MINREF    
 on the CNVTOL command.  Check results carefully.                        
     CURRENT CONVERGENCE VALUE=   0.000      CRITERION=   0.000     <<< CONVERGED
     DISP CONVERGENCE VALUE   =  0.1109E-10  CRITERION=  0.5000E-11
    EQUIL ITER   2 COMPLETED.  NEW TRIANG MATRIX.  MAX DOF INC=  0.1109E-10
     FORCE CONVERGENCE VALUE  =  0.6167E-13  CRITERION=  0.1000E-02 <<< CONVERGED
     CURRENT CONVERGENCE VALUE=   0.000      CRITERION=   0.000     <<< CONVERGED
     DISP CONVERGENCE VALUE   =  0.1072E-12  CRITERION=  0.5000E-11 <<< CONVERGED
    EQUIL ITER   3 COMPLETED.  NEW TRIANG MATRIX.  MAX DOF INC =  0.1072E-12
    >>> SOLUTION CONVERGED AFTER EQUILIBRIUM ITERATION   3
    >>> SOLUTION CONVERGED AFTER EQUILIBRIUM ITERATION   3
 *** LOAD STEP     7   SUBSTEP     1  COMPLETED.    CUM ITER =     19
 *** TIME =   7.00000         TIME INC =   1.00000    
 ****************************************************
 *************** FINISHED SOLVE FOR LS 7 *************
 ****************************************************
 ******************* SOLVE FOR LS 8 OF 100 ****************

 PRINTOUT RESUMED BY /GOP

 USE AUTOMATIC TIME STEPPING THIS LOAD STEP

 USE       1 SUBSTEPS INITIALLY THIS LOAD STEP FOR ALL  DEGREES OF FREEDOM
 FOR AUTOMATIC TIME STEPPING:
   USE     10 SUBSTEPS AS A MAXIMUM
   USE      1 SUBSTEPS AS A MINIMUM

 TIME=  8.0000    

 ERASE THE CURRENT DATABASE OUTPUT CONTROL TABLE.


 WRITE ALL  ITEMS TO THE DATABASE WITH A FREQUENCY OF NONE
   FOR ALL APPLICABLE ENTITIES

 WRITE NSOL ITEMS TO THE DATABASE WITH A FREQUENCY OF ALL 
   FOR ALL APPLICABLE ENTITIES

 WRITE RSOL ITEMS TO THE DATABASE WITH A FREQUENCY OF ALL 
   FOR ALL APPLICABLE ENTITIES

 WRITE EANG ITEMS TO THE DATABASE WITH A FREQUENCY OF ALL 
   FOR ALL APPLICABLE ENTITIES

 WRITE ETMP ITEMS TO THE DATABASE WITH A FREQUENCY OF ALL 
   FOR ALL APPLICABLE ENTITIES

 WRITE VENG ITEMS TO THE DATABASE WITH A FREQUENCY OF ALL 
   FOR ALL APPLICABLE ENTITIES

 WRITE STRS ITEMS TO THE DATABASE WITH A FREQUENCY OF ALL 
   FOR ALL APPLICABLE ENTITIES

 WRITE EPEL ITEMS TO THE DATABASE WITH A FREQUENCY OF ALL 
   FOR ALL APPLICABLE ENTITIES

 WRITE EPPL ITEMS TO THE DATABASE WITH A FREQUENCY OF ALL 
   FOR ALL APPLICABLE ENTITIES

 WRITE CONT ITEMS TO THE DATABASE WITH A FREQUENCY OF ALL 
   FOR ALL APPLICABLE ENTITIES

 *****  ANSYS SOLVE    COMMAND  *****

 *** NOTE ***                            CP =      73.969   TIME= 13:12:24
 The Solution Control Option is only valid for single field structural,  
 single field thermal, single field diffusion, coupled                   
 thermal-diffusion analyses and coupled-field analyses with structural   
 degrees of freedom.  The SOLCONTROL,ON command (if present) has been    
 de-activated.                                                           

 *** NOTE ***                            CP =      73.969   TIME= 13:12:24
 This nonlinear analysis defaults to using the full Newton-Raphson       
 solution procedure.  This can be modified using the NROPT command.      

 *** ANSYS - ENGINEERING ANALYSIS SYSTEM  RELEASE 2020 R1          20.1     ***
 DISTRIBUTED ANSYS Academic Teaching Introductory              

 01055371  VERSION=WINDOWS x64   13:12:24  APR 02, 2020 CP=     74.062

                                                                               



                      L O A D   S T E P   O P T I O N S

   LOAD STEP NUMBER. . . . . . . . . . . . . . . .     8
   TIME AT END OF THE LOAD STEP. . . . . . . . . .  8.0000    
   AUTOMATIC TIME STEPPING . . . . . . . . . . . .    ON
      INITIAL NUMBER OF SUBSTEPS . . . . . . . . .     1
      MAXIMUM NUMBER OF SUBSTEPS . . . . . . . . .    10
      MINIMUM NUMBER OF SUBSTEPS . . . . . . . . .     1
   MAXIMUM NUMBER OF EQUILIBRIUM ITERATIONS. . . .    25
   STEP CHANGE BOUNDARY CONDITIONS . . . . . . . .    NO
   TERMINATE ANALYSIS IF NOT CONVERGED . . . . . .YES (EXIT)  
   CONVERGENCE CONTROLS
      LABEL   REFERENCE    TOLERANCE  NORM     MINREF
       U      0.1000E-08   0.5000E-02   0     -1.000    
   PRINT OUTPUT CONTROLS . . . . . . . . . . . . .NO PRINTOUT
   DATABASE OUTPUT CONTROLS
      ITEM     FREQUENCY   COMPONENT
       ALL       NONE               
      NSOL        ALL               
      RSOL        ALL               
      EANG        ALL               
      ETMP        ALL               
      VENG        ALL               
      STRS        ALL               
      EPEL        ALL               
      EPPL        ALL               
      CONT        ALL               


     FORCE CONVERGENCE VALUE  =  0.8038E-10  CRITERION=  0.1000E-02
     CURRENT CONVERGENCE VALUE=   0.000      CRITERION=   0.000    
     DISP CONVERGENCE VALUE   =  0.1395E-09  CRITERION=  0.5000E-11
    EQUIL ITER   1 COMPLETED.  NEW TRIANG MATRIX.  MAX DOF INC=  0.1000    
     FORCE CONVERGENCE VALUE  =  0.6757E-11  CRITERION=  0.1000E-02 <<< CONVERGED

 *** WARNING ***                         CP =      76.656   TIME= 13:12:27
 A reference force value times the tolerance is used by the              
 Newton-Raphson method for checking convergence.  The calculated         
 reference FORCE CONVERGENCE VALUE = 2.687401018E-08 is less than a      
 threshold.  This threshold defaults to 1.0 or is specified as MINREF    
 on the CNVTOL command.  Check results carefully.                        
     CURRENT CONVERGENCE VALUE=   0.000      CRITERION=   0.000     <<< CONVERGED
     DISP CONVERGENCE VALUE   =  0.1173E-10  CRITERION=  0.5000E-11
    EQUIL ITER   2 COMPLETED.  NEW TRIANG MATRIX.  MAX DOF INC=  0.1173E-10
     FORCE CONVERGENCE VALUE  =  0.8558E-13  CRITERION=  0.1000E-02 <<< CONVERGED
     CURRENT CONVERGENCE VALUE=   0.000      CRITERION=   0.000     <<< CONVERGED
     DISP CONVERGENCE VALUE   =  0.1487E-12  CRITERION=  0.5000E-11 <<< CONVERGED
    EQUIL ITER   3 COMPLETED.  NEW TRIANG MATRIX.  MAX DOF INC =  0.1487E-12
    >>> SOLUTION CONVERGED AFTER EQUILIBRIUM ITERATION   3
    >>> SOLUTION CONVERGED AFTER EQUILIBRIUM ITERATION   3
 *** LOAD STEP     8   SUBSTEP     1  COMPLETED.    CUM ITER =     22
 *** TIME =   8.00000         TIME INC =   1.00000    
 ****************************************************
 *************** FINISHED SOLVE FOR LS 8 *************
 ****************************************************
 ******************* SOLVE FOR LS 9 OF 100 ****************

 PRINTOUT RESUMED BY /GOP

 USE AUTOMATIC TIME STEPPING THIS LOAD STEP

 USE       1 SUBSTEPS INITIALLY THIS LOAD STEP FOR ALL  DEGREES OF FREEDOM
 FOR AUTOMATIC TIME STEPPING:
   USE     10 SUBSTEPS AS A MAXIMUM
   USE      1 SUBSTEPS AS A MINIMUM

 TIME=  9.0000    

 ERASE THE CURRENT DATABASE OUTPUT CONTROL TABLE.


 WRITE ALL  ITEMS TO THE DATABASE WITH A FREQUENCY OF NONE
   FOR ALL APPLICABLE ENTITIES

 WRITE NSOL ITEMS TO THE DATABASE WITH A FREQUENCY OF ALL 
   FOR ALL APPLICABLE ENTITIES

 WRITE RSOL ITEMS TO THE DATABASE WITH A FREQUENCY OF ALL 
   FOR ALL APPLICABLE ENTITIES

 WRITE EANG ITEMS TO THE DATABASE WITH A FREQUENCY OF ALL 
   FOR ALL APPLICABLE ENTITIES

 WRITE ETMP ITEMS TO THE DATABASE WITH A FREQUENCY OF ALL 
   FOR ALL APPLICABLE ENTITIES

 WRITE VENG ITEMS TO THE DATABASE WITH A FREQUENCY OF ALL 
   FOR ALL APPLICABLE ENTITIES

 WRITE STRS ITEMS TO THE DATABASE WITH A FREQUENCY OF ALL 
   FOR ALL APPLICABLE ENTITIES

 WRITE EPEL ITEMS TO THE DATABASE WITH A FREQUENCY OF ALL 
   FOR ALL APPLICABLE ENTITIES

 WRITE EPPL ITEMS TO THE DATABASE WITH A FREQUENCY OF ALL 
   FOR ALL APPLICABLE ENTITIES

 WRITE CONT ITEMS TO THE DATABASE WITH A FREQUENCY OF ALL 
   FOR ALL APPLICABLE ENTITIES

 *****  ANSYS SOLVE    COMMAND  *****

 *** NOTE ***                            CP =      81.078   TIME= 13:12:31
 The Solution Control Option is only valid for single field structural,  
 single field thermal, single field diffusion, coupled                   
 thermal-diffusion analyses and coupled-field analyses with structural   
 degrees of freedom.  The SOLCONTROL,ON command (if present) has been    
 de-activated.                                                           

 *** NOTE ***                            CP =      81.078   TIME= 13:12:31
 This nonlinear analysis defaults to using the full Newton-Raphson       
 solution procedure.  This can be modified using the NROPT command.      

 *** ANSYS - ENGINEERING ANALYSIS SYSTEM  RELEASE 2020 R1          20.1     ***
 DISTRIBUTED ANSYS Academic Teaching Introductory              

 01055371  VERSION=WINDOWS x64   13:12:31  APR 02, 2020 CP=     81.172

                                                                               



                      L O A D   S T E P   O P T I O N S

   LOAD STEP NUMBER. . . . . . . . . . . . . . . .     9
   TIME AT END OF THE LOAD STEP. . . . . . . . . .  9.0000    
   AUTOMATIC TIME STEPPING . . . . . . . . . . . .    ON
      INITIAL NUMBER OF SUBSTEPS . . . . . . . . .     1
      MAXIMUM NUMBER OF SUBSTEPS . . . . . . . . .    10
      MINIMUM NUMBER OF SUBSTEPS . . . . . . . . .     1
   MAXIMUM NUMBER OF EQUILIBRIUM ITERATIONS. . . .    25
   STEP CHANGE BOUNDARY CONDITIONS . . . . . . . .    NO
   TERMINATE ANALYSIS IF NOT CONVERGED . . . . . .YES (EXIT)  
   CONVERGENCE CONTROLS
      LABEL   REFERENCE    TOLERANCE  NORM     MINREF
       U      0.1000E-08   0.5000E-02   0     -1.000    
   PRINT OUTPUT CONTROLS . . . . . . . . . . . . .NO PRINTOUT
   DATABASE OUTPUT CONTROLS
      ITEM     FREQUENCY   COMPONENT
       ALL       NONE               
      NSOL        ALL               
      RSOL        ALL               
      EANG        ALL               
      ETMP        ALL               
      VENG        ALL               
      STRS        ALL               
      EPEL        ALL               
      EPPL        ALL               
      CONT        ALL               


     FORCE CONVERGENCE VALUE  =  0.9214E-10  CRITERION=  0.1000E-02
     CURRENT CONVERGENCE VALUE=   0.000      CRITERION=   0.000    
     DISP CONVERGENCE VALUE   =  0.1599E-09  CRITERION=  0.5000E-11
    EQUIL ITER   1 COMPLETED.  NEW TRIANG MATRIX.  MAX DOF INC=  0.1000    
     FORCE CONVERGENCE VALUE  =  0.7239E-11  CRITERION=  0.1000E-02 <<< CONVERGED

 *** WARNING ***                         CP =      83.688   TIME= 13:12:34
 A reference force value times the tolerance is used by the              
 Newton-Raphson method for checking convergence.  The calculated         
 reference FORCE CONVERGENCE VALUE = 3.422811308E-08 is less than a      
 threshold.  This threshold defaults to 1.0 or is specified as MINREF    
 on the CNVTOL command.  Check results carefully.                        
     CURRENT CONVERGENCE VALUE=   0.000      CRITERION=   0.000     <<< CONVERGED
     DISP CONVERGENCE VALUE   =  0.1256E-10  CRITERION=  0.5000E-11
    EQUIL ITER   2 COMPLETED.  NEW TRIANG MATRIX.  MAX DOF INC=  0.1256E-10
     FORCE CONVERGENCE VALUE  =  0.1166E-12  CRITERION=  0.1000E-02 <<< CONVERGED
     CURRENT CONVERGENCE VALUE=   0.000      CRITERION=   0.000     <<< CONVERGED
     DISP CONVERGENCE VALUE   =  0.2027E-12  CRITERION=  0.5000E-11 <<< CONVERGED
    EQUIL ITER   3 COMPLETED.  NEW TRIANG MATRIX.  MAX DOF INC =  0.2027E-12
    >>> SOLUTION CONVERGED AFTER EQUILIBRIUM ITERATION   3
    >>> SOLUTION CONVERGED AFTER EQUILIBRIUM ITERATION   3
 *** LOAD STEP     9   SUBSTEP     1  COMPLETED.    CUM ITER =     25
 *** TIME =   9.00000         TIME INC =   1.00000    
 ****************************************************
 *************** FINISHED SOLVE FOR LS 9 *************
 ****************************************************
 ******************* SOLVE FOR LS 10 OF 100 ****************

 PRINTOUT RESUMED BY /GOP

 USE AUTOMATIC TIME STEPPING THIS LOAD STEP

 USE       1 SUBSTEPS INITIALLY THIS LOAD STEP FOR ALL  DEGREES OF FREEDOM
 FOR AUTOMATIC TIME STEPPING:
   USE     10 SUBSTEPS AS A MAXIMUM
   USE      1 SUBSTEPS AS A MINIMUM

 TIME=  10.000    

 ERASE THE CURRENT DATABASE OUTPUT CONTROL TABLE.


 WRITE ALL  ITEMS TO THE DATABASE WITH A FREQUENCY OF NONE
   FOR ALL APPLICABLE ENTITIES

 WRITE NSOL ITEMS TO THE DATABASE WITH A FREQUENCY OF ALL 
   FOR ALL APPLICABLE ENTITIES

 WRITE RSOL ITEMS TO THE DATABASE WITH A FREQUENCY OF ALL 
   FOR ALL APPLICABLE ENTITIES

 WRITE EANG ITEMS TO THE DATABASE WITH A FREQUENCY OF ALL 
   FOR ALL APPLICABLE ENTITIES

 WRITE ETMP ITEMS TO THE DATABASE WITH A FREQUENCY OF ALL 
   FOR ALL APPLICABLE ENTITIES

 WRITE VENG ITEMS TO THE DATABASE WITH A FREQUENCY OF ALL 
   FOR ALL APPLICABLE ENTITIES

 WRITE STRS ITEMS TO THE DATABASE WITH A FREQUENCY OF ALL 
   FOR ALL APPLICABLE ENTITIES

 WRITE EPEL ITEMS TO THE DATABASE WITH A FREQUENCY OF ALL 
   FOR ALL APPLICABLE ENTITIES

 WRITE EPPL ITEMS TO THE DATABASE WITH A FREQUENCY OF ALL 
   FOR ALL APPLICABLE ENTITIES

 WRITE CONT ITEMS TO THE DATABASE WITH A FREQUENCY OF ALL 
   FOR ALL APPLICABLE ENTITIES

 *****  ANSYS SOLVE    COMMAND  *****

 *** NOTE ***                            CP =      88.078   TIME= 13:12:39
 The Solution Control Option is only valid for single field structural,  
 single field thermal, single field diffusion, coupled                   
 thermal-diffusion analyses and coupled-field analyses with structural   
 degrees of freedom.  The SOLCONTROL,ON command (if present) has been    
 de-activated.                                                           

 *** NOTE ***                            CP =      88.078   TIME= 13:12:39
 This nonlinear analysis defaults to using the full Newton-Raphson       
 solution procedure.  This can be modified using the NROPT command.      

 *** ANSYS - ENGINEERING ANALYSIS SYSTEM  RELEASE 2020 R1          20.1     ***
 DISTRIBUTED ANSYS Academic Teaching Introductory              

 01055371  VERSION=WINDOWS x64   13:12:39  APR 02, 2020 CP=     88.188

                                                                               



                      L O A D   S T E P   O P T I O N S

   LOAD STEP NUMBER. . . . . . . . . . . . . . . .    10
   TIME AT END OF THE LOAD STEP. . . . . . . . . .  10.000    
   AUTOMATIC TIME STEPPING . . . . . . . . . . . .    ON
      INITIAL NUMBER OF SUBSTEPS . . . . . . . . .     1
      MAXIMUM NUMBER OF SUBSTEPS . . . . . . . . .    10
      MINIMUM NUMBER OF SUBSTEPS . . . . . . . . .     1
   MAXIMUM NUMBER OF EQUILIBRIUM ITERATIONS. . . .    25
   STEP CHANGE BOUNDARY CONDITIONS . . . . . . . .    NO
   TERMINATE ANALYSIS IF NOT CONVERGED . . . . . .YES (EXIT)  
   CONVERGENCE CONTROLS
      LABEL   REFERENCE    TOLERANCE  NORM     MINREF
       U      0.1000E-08   0.5000E-02   0     -1.000    
   PRINT OUTPUT CONTROLS . . . . . . . . . . . . .NO PRINTOUT
   DATABASE OUTPUT CONTROLS
      ITEM     FREQUENCY   COMPONENT
       ALL       NONE               
      NSOL        ALL               
      RSOL        ALL               
      EANG        ALL               
      ETMP        ALL               
      VENG        ALL               
      STRS        ALL               
      EPEL        ALL               
      EPPL        ALL               
      CONT        ALL               


     FORCE CONVERGENCE VALUE  =  0.1040E-09  CRITERION=  0.1000E-02
     CURRENT CONVERGENCE VALUE=   0.000      CRITERION=   0.000    
     DISP CONVERGENCE VALUE   =  0.1805E-09  CRITERION=  0.5000E-11
    EQUIL ITER   1 COMPLETED.  NEW TRIANG MATRIX.  MAX DOF INC=  0.1000    
     FORCE CONVERGENCE VALUE  =  0.7853E-11  CRITERION=  0.1000E-02 <<< CONVERGED

 *** WARNING ***                         CP =      90.734   TIME= 13:12:41
 A reference force value times the tolerance is used by the              
 Newton-Raphson method for checking convergence.  The calculated         
 reference FORCE CONVERGENCE VALUE = 4.250252802E-08 is less than a      
 threshold.  This threshold defaults to 1.0 or is specified as MINREF    
 on the CNVTOL command.  Check results carefully.                        
     CURRENT CONVERGENCE VALUE=   0.000      CRITERION=   0.000     <<< CONVERGED
     DISP CONVERGENCE VALUE   =  0.1363E-10  CRITERION=  0.5000E-11
    EQUIL ITER   2 COMPLETED.  NEW TRIANG MATRIX.  MAX DOF INC=  0.1363E-10
     FORCE CONVERGENCE VALUE  =  0.1571E-12  CRITERION=  0.1000E-02 <<< CONVERGED
     CURRENT CONVERGENCE VALUE=   0.000      CRITERION=   0.000     <<< CONVERGED
     DISP CONVERGENCE VALUE   =  0.2730E-12  CRITERION=  0.5000E-11 <<< CONVERGED
    EQUIL ITER   3 COMPLETED.  NEW TRIANG MATRIX.  MAX DOF INC =  0.2730E-12
    >>> SOLUTION CONVERGED AFTER EQUILIBRIUM ITERATION   3
    >>> SOLUTION CONVERGED AFTER EQUILIBRIUM ITERATION   3
 *** LOAD STEP    10   SUBSTEP     1  COMPLETED.    CUM ITER =     28
 *** TIME =   10.0000         TIME INC =   1.00000    
 ****************************************************
 *************** FINISHED SOLVE FOR LS 10 *************
 ****************************************************
 ******************* SOLVE FOR LS 11 OF 100 ****************

 PRINTOUT RESUMED BY /GOP

 USE AUTOMATIC TIME STEPPING THIS LOAD STEP

 USE       1 SUBSTEPS INITIALLY THIS LOAD STEP FOR ALL  DEGREES OF FREEDOM
 FOR AUTOMATIC TIME STEPPING:
   USE     10 SUBSTEPS AS A MAXIMUM
   USE      1 SUBSTEPS AS A MINIMUM

 TIME=  11.000    

 ERASE THE CURRENT DATABASE OUTPUT CONTROL TABLE.


 WRITE ALL  ITEMS TO THE DATABASE WITH A FREQUENCY OF NONE
   FOR ALL APPLICABLE ENTITIES

 WRITE NSOL ITEMS TO THE DATABASE WITH A FREQUENCY OF ALL 
   FOR ALL APPLICABLE ENTITIES

 WRITE RSOL ITEMS TO THE DATABASE WITH A FREQUENCY OF ALL 
   FOR ALL APPLICABLE ENTITIES

 WRITE EANG ITEMS TO THE DATABASE WITH A FREQUENCY OF ALL 
   FOR ALL APPLICABLE ENTITIES

 WRITE ETMP ITEMS TO THE DATABASE WITH A FREQUENCY OF ALL 
   FOR ALL APPLICABLE ENTITIES

 WRITE VENG ITEMS TO THE DATABASE WITH A FREQUENCY OF ALL 
   FOR ALL APPLICABLE ENTITIES

 WRITE STRS ITEMS TO THE DATABASE WITH A FREQUENCY OF ALL 
   FOR ALL APPLICABLE ENTITIES

 WRITE EPEL ITEMS TO THE DATABASE WITH A FREQUENCY OF ALL 
   FOR ALL APPLICABLE ENTITIES

 WRITE EPPL ITEMS TO THE DATABASE WITH A FREQUENCY OF ALL 
   FOR ALL APPLICABLE ENTITIES

 WRITE CONT ITEMS TO THE DATABASE WITH A FREQUENCY OF ALL 
   FOR ALL APPLICABLE ENTITIES

 *****  ANSYS SOLVE    COMMAND  *****

 *** NOTE ***                            CP =      95.109   TIME= 13:12:46
 The Solution Control Option is only valid for single field structural,  
 single field thermal, single field diffusion, coupled                   
 thermal-diffusion analyses and coupled-field analyses with structural   
 degrees of freedom.  The SOLCONTROL,ON command (if present) has been    
 de-activated.                                                           

 *** NOTE ***                            CP =      95.109   TIME= 13:12:46
 This nonlinear analysis defaults to using the full Newton-Raphson       
 solution procedure.  This can be modified using the NROPT command.      

 *** ANSYS - ENGINEERING ANALYSIS SYSTEM  RELEASE 2020 R1          20.1     ***
 DISTRIBUTED ANSYS Academic Teaching Introductory              

 01055371  VERSION=WINDOWS x64   13:12:46  APR 02, 2020 CP=     95.203

                                                                               



                      L O A D   S T E P   O P T I O N S

   LOAD STEP NUMBER. . . . . . . . . . . . . . . .    11
   TIME AT END OF THE LOAD STEP. . . . . . . . . .  11.000    
   AUTOMATIC TIME STEPPING . . . . . . . . . . . .    ON
      INITIAL NUMBER OF SUBSTEPS . . . . . . . . .     1
      MAXIMUM NUMBER OF SUBSTEPS . . . . . . . . .    10
      MINIMUM NUMBER OF SUBSTEPS . . . . . . . . .     1
   MAXIMUM NUMBER OF EQUILIBRIUM ITERATIONS. . . .    25
   STEP CHANGE BOUNDARY CONDITIONS . . . . . . . .    NO
   TERMINATE ANALYSIS IF NOT CONVERGED . . . . . .YES (EXIT)  
   CONVERGENCE CONTROLS
      LABEL   REFERENCE    TOLERANCE  NORM     MINREF
       U      0.1000E-08   0.5000E-02   0     -1.000    
   PRINT OUTPUT CONTROLS . . . . . . . . . . . . .NO PRINTOUT
   DATABASE OUTPUT CONTROLS
      ITEM     FREQUENCY   COMPONENT
       ALL       NONE               
      NSOL        ALL               
      RSOL        ALL               
      EANG        ALL               
      ETMP        ALL               
      VENG        ALL               
      STRS        ALL               
      EPEL        ALL               
      EPPL        ALL               
      CONT        ALL               


     FORCE CONVERGENCE VALUE  =  0.1160E-09  CRITERION=  0.1000E-02
     CURRENT CONVERGENCE VALUE=   0.000      CRITERION=   0.000    
     DISP CONVERGENCE VALUE   =  0.2013E-09  CRITERION=  0.5000E-11
    EQUIL ITER   1 COMPLETED.  NEW TRIANG MATRIX.  MAX DOF INC=  0.1000    
     FORCE CONVERGENCE VALUE  =  0.8618E-11  CRITERION=  0.1000E-02 <<< CONVERGED

 *** WARNING ***                         CP =      97.812   TIME= 13:12:49
 A reference force value times the tolerance is used by the              
 Newton-Raphson method for checking convergence.  The calculated         
 reference FORCE CONVERGENCE VALUE = 5.17175233E-08 is less than a       
 threshold.  This threshold defaults to 1.0 or is specified as MINREF    
 on the CNVTOL command.  Check results carefully.                        
     CURRENT CONVERGENCE VALUE=   0.000      CRITERION=   0.000     <<< CONVERGED
     DISP CONVERGENCE VALUE   =  0.1496E-10  CRITERION=  0.5000E-11
    EQUIL ITER   2 COMPLETED.  NEW TRIANG MATRIX.  MAX DOF INC=  0.1496E-10
     FORCE CONVERGENCE VALUE  =  0.2100E-12  CRITERION=  0.1000E-02 <<< CONVERGED
     CURRENT CONVERGENCE VALUE=   0.000      CRITERION=   0.000     <<< CONVERGED
     DISP CONVERGENCE VALUE   =  0.3649E-12  CRITERION=  0.5000E-11 <<< CONVERGED
    EQUIL ITER   3 COMPLETED.  NEW TRIANG MATRIX.  MAX DOF INC =  0.3649E-12
    >>> SOLUTION CONVERGED AFTER EQUILIBRIUM ITERATION   3
    >>> SOLUTION CONVERGED AFTER EQUILIBRIUM ITERATION   3
 *** LOAD STEP    11   SUBSTEP     1  COMPLETED.    CUM ITER =     31
 *** TIME =   11.0000         TIME INC =   1.00000    
 ****************************************************
 *************** FINISHED SOLVE FOR LS 11 *************
 ****************************************************
 ******************* SOLVE FOR LS 12 OF 100 ****************

 PRINTOUT RESUMED BY /GOP

 USE AUTOMATIC TIME STEPPING THIS LOAD STEP

 USE       1 SUBSTEPS INITIALLY THIS LOAD STEP FOR ALL  DEGREES OF FREEDOM
 FOR AUTOMATIC TIME STEPPING:
   USE     10 SUBSTEPS AS A MAXIMUM
   USE      1 SUBSTEPS AS A MINIMUM

 TIME=  12.000    

 ERASE THE CURRENT DATABASE OUTPUT CONTROL TABLE.


 WRITE ALL  ITEMS TO THE DATABASE WITH A FREQUENCY OF NONE
   FOR ALL APPLICABLE ENTITIES

 WRITE NSOL ITEMS TO THE DATABASE WITH A FREQUENCY OF ALL 
   FOR ALL APPLICABLE ENTITIES

 WRITE RSOL ITEMS TO THE DATABASE WITH A FREQUENCY OF ALL 
   FOR ALL APPLICABLE ENTITIES

 WRITE EANG ITEMS TO THE DATABASE WITH A FREQUENCY OF ALL 
   FOR ALL APPLICABLE ENTITIES

 WRITE ETMP ITEMS TO THE DATABASE WITH A FREQUENCY OF ALL 
   FOR ALL APPLICABLE ENTITIES

 WRITE VENG ITEMS TO THE DATABASE WITH A FREQUENCY OF ALL 
   FOR ALL APPLICABLE ENTITIES

 WRITE STRS ITEMS TO THE DATABASE WITH A FREQUENCY OF ALL 
   FOR ALL APPLICABLE ENTITIES

 WRITE EPEL ITEMS TO THE DATABASE WITH A FREQUENCY OF ALL 
   FOR ALL APPLICABLE ENTITIES

 WRITE EPPL ITEMS TO THE DATABASE WITH A FREQUENCY OF ALL 
   FOR ALL APPLICABLE ENTITIES

 WRITE CONT ITEMS TO THE DATABASE WITH A FREQUENCY OF ALL 
   FOR ALL APPLICABLE ENTITIES

 *****  ANSYS SOLVE    COMMAND  *****

 *** NOTE ***                            CP =     102.203   TIME= 13:12:53
 The Solution Control Option is only valid for single field structural,  
 single field thermal, single field diffusion, coupled                   
 thermal-diffusion analyses and coupled-field analyses with structural   
 degrees of freedom.  The SOLCONTROL,ON command (if present) has been    
 de-activated.                                                           

 *** NOTE ***                            CP =     102.203   TIME= 13:12:53
 This nonlinear analysis defaults to using the full Newton-Raphson       
 solution procedure.  This can be modified using the NROPT command.      

 *** ANSYS - ENGINEERING ANALYSIS SYSTEM  RELEASE 2020 R1          20.1     ***
 DISTRIBUTED ANSYS Academic Teaching Introductory              

 01055371  VERSION=WINDOWS x64   13:12:53  APR 02, 2020 CP=    102.297

                                                                               



                      L O A D   S T E P   O P T I O N S

   LOAD STEP NUMBER. . . . . . . . . . . . . . . .    12
   TIME AT END OF THE LOAD STEP. . . . . . . . . .  12.000    
   AUTOMATIC TIME STEPPING . . . . . . . . . . . .    ON
      INITIAL NUMBER OF SUBSTEPS . . . . . . . . .     1
      MAXIMUM NUMBER OF SUBSTEPS . . . . . . . . .    10
      MINIMUM NUMBER OF SUBSTEPS . . . . . . . . .     1
   MAXIMUM NUMBER OF EQUILIBRIUM ITERATIONS. . . .    25
   STEP CHANGE BOUNDARY CONDITIONS . . . . . . . .    NO
   TERMINATE ANALYSIS IF NOT CONVERGED . . . . . .YES (EXIT)  
   CONVERGENCE CONTROLS
      LABEL   REFERENCE    TOLERANCE  NORM     MINREF
       U      0.1000E-08   0.5000E-02   0     -1.000    
   PRINT OUTPUT CONTROLS . . . . . . . . . . . . .NO PRINTOUT
   DATABASE OUTPUT CONTROLS
      ITEM     FREQUENCY   COMPONENT
       ALL       NONE               
      NSOL        ALL               
      RSOL        ALL               
      EANG        ALL               
      ETMP        ALL               
      VENG        ALL               
      STRS        ALL               
      EPEL        ALL               
      EPPL        ALL               
      CONT        ALL               


     FORCE CONVERGENCE VALUE  =  0.1282E-09  CRITERION=  0.1000E-02
     CURRENT CONVERGENCE VALUE=   0.000      CRITERION=   0.000    
[...]
       ALL       NONE               
      NSOL        ALL               
      RSOL        ALL               
      EANG        ALL               
      ETMP        ALL               
      VENG        ALL               
      STRS        ALL               
      EPEL        ALL               
      EPPL        ALL               
      CONT        ALL               


     FORCE CONVERGENCE VALUE  =  0.3418E-10  CRITERION=  0.1000E-02
     CURRENT CONVERGENCE VALUE=   0.000      CRITERION=   0.000    
     DISP CONVERGENCE VALUE   =  0.5930E-10  CRITERION=  0.5000E-11
    EQUIL ITER   1 COMPLETED.  NEW TRIANG MATRIX.  MAX DOF INC= -0.1000    
     FORCE CONVERGENCE VALUE  =  0.5670E-11  CRITERION=  0.1000E-02 <<< CONVERGED

 *** WARNING ***                         CP =     957.141   TIME= 13:28:13
 A reference force value times the tolerance is used by the              
 Newton-Raphson method for checking convergence.  The calculated         
 reference FORCE CONVERGENCE VALUE = 1.269752794E-09 is less than a      
 threshold.  This threshold defaults to 1.0 or is specified as MINREF    
 on the CNVTOL command.  Check results carefully.                        
     CURRENT CONVERGENCE VALUE=   0.000      CRITERION=   0.000     <<< CONVERGED
     DISP CONVERGENCE VALUE   =  0.9837E-11  CRITERION=  0.5000E-11
    EQUIL ITER   2 COMPLETED.  NEW TRIANG MATRIX.  MAX DOF INC=  0.9837E-11
     FORCE CONVERGENCE VALUE  =  0.4409E-14  CRITERION=  0.1000E-02 <<< CONVERGED
     CURRENT CONVERGENCE VALUE=   0.000      CRITERION=   0.000     <<< CONVERGED
     DISP CONVERGENCE VALUE   =  0.7660E-14  CRITERION=  0.5000E-11 <<< CONVERGED
    EQUIL ITER   3 COMPLETED.  NEW TRIANG MATRIX.  MAX DOF INC =  0.7660E-14
    >>> SOLUTION CONVERGED AFTER EQUILIBRIUM ITERATION   3
    >>> SOLUTION CONVERGED AFTER EQUILIBRIUM ITERATION   3
 *** LOAD STEP    98   SUBSTEP     1  COMPLETED.    CUM ITER =    399
 *** TIME =   98.0000         TIME INC =   1.00000    
 ****************************************************
 *************** FINISHED SOLVE FOR LS 98 *************
 ****************************************************
 ******************* SOLVE FOR LS 99 OF 100 ****************

 PRINTOUT RESUMED BY /GOP

 USE AUTOMATIC TIME STEPPING THIS LOAD STEP

 USE       1 SUBSTEPS INITIALLY THIS LOAD STEP FOR ALL  DEGREES OF FREEDOM
 FOR AUTOMATIC TIME STEPPING:
   USE     10 SUBSTEPS AS A MAXIMUM
   USE      1 SUBSTEPS AS A MINIMUM

 TIME=  99.000    

 ERASE THE CURRENT DATABASE OUTPUT CONTROL TABLE.


 WRITE ALL  ITEMS TO THE DATABASE WITH A FREQUENCY OF NONE
   FOR ALL APPLICABLE ENTITIES

 WRITE NSOL ITEMS TO THE DATABASE WITH A FREQUENCY OF ALL 
   FOR ALL APPLICABLE ENTITIES

 WRITE RSOL ITEMS TO THE DATABASE WITH A FREQUENCY OF ALL 
   FOR ALL APPLICABLE ENTITIES

 WRITE EANG ITEMS TO THE DATABASE WITH A FREQUENCY OF ALL 
   FOR ALL APPLICABLE ENTITIES

 WRITE ETMP ITEMS TO THE DATABASE WITH A FREQUENCY OF ALL 
   FOR ALL APPLICABLE ENTITIES

 WRITE VENG ITEMS TO THE DATABASE WITH A FREQUENCY OF ALL 
   FOR ALL APPLICABLE ENTITIES

 WRITE STRS ITEMS TO THE DATABASE WITH A FREQUENCY OF ALL 
   FOR ALL APPLICABLE ENTITIES

 WRITE EPEL ITEMS TO THE DATABASE WITH A FREQUENCY OF ALL 
   FOR ALL APPLICABLE ENTITIES

 WRITE EPPL ITEMS TO THE DATABASE WITH A FREQUENCY OF ALL 
   FOR ALL APPLICABLE ENTITIES

 WRITE CONT ITEMS TO THE DATABASE WITH A FREQUENCY OF ALL 
   FOR ALL APPLICABLE ENTITIES

 *****  ANSYS SOLVE    COMMAND  *****

 *** NOTE ***                            CP =     961.625   TIME= 13:28:17
 The Solution Control Option is only valid for single field structural,  
 single field thermal, single field diffusion, coupled                   
 thermal-diffusion analyses and coupled-field analyses with structural   
 degrees of freedom.  The SOLCONTROL,ON command (if present) has been    
 de-activated.                                                           

 *** NOTE ***                            CP =     961.625   TIME= 13:28:17
 This nonlinear analysis defaults to using the full Newton-Raphson       
 solution procedure.  This can be modified using the NROPT command.      

 *** ANSYS - ENGINEERING ANALYSIS SYSTEM  RELEASE 2020 R1          20.1     ***
 DISTRIBUTED ANSYS Academic Teaching Introductory              

 01055371  VERSION=WINDOWS x64   13:28:17  APR 02, 2020 CP=    961.688

                                                                               



                      L O A D   S T E P   O P T I O N S

   LOAD STEP NUMBER. . . . . . . . . . . . . . . .    99
   TIME AT END OF THE LOAD STEP. . . . . . . . . .  99.000    
   AUTOMATIC TIME STEPPING . . . . . . . . . . . .    ON
      INITIAL NUMBER OF SUBSTEPS . . . . . . . . .     1
      MAXIMUM NUMBER OF SUBSTEPS . . . . . . . . .    10
      MINIMUM NUMBER OF SUBSTEPS . . . . . . . . .     1
   MAXIMUM NUMBER OF EQUILIBRIUM ITERATIONS. . . .    25
   STEP CHANGE BOUNDARY CONDITIONS . . . . . . . .    NO
   TERMINATE ANALYSIS IF NOT CONVERGED . . . . . .YES (EXIT)  
   CONVERGENCE CONTROLS
      LABEL   REFERENCE    TOLERANCE  NORM     MINREF
       U      0.1000E-08   0.5000E-02   0     -1.000    
   PRINT OUTPUT CONTROLS . . . . . . . . . . . . .NO PRINTOUT
   DATABASE OUTPUT CONTROLS
      ITEM     FREQUENCY   COMPONENT
       ALL       NONE               
      NSOL        ALL               
      RSOL        ALL               
      EANG        ALL               
      ETMP        ALL               
      VENG        ALL               
      STRS        ALL               
      EPEL        ALL               
      EPPL        ALL               
      CONT        ALL               


     FORCE CONVERGENCE VALUE  =  0.2276E-10  CRITERION=  0.1000E-02
     CURRENT CONVERGENCE VALUE=   0.000      CRITERION=   0.000    
     DISP CONVERGENCE VALUE   =  0.3950E-10  CRITERION=  0.5000E-11
    EQUIL ITER   1 COMPLETED.  NEW TRIANG MATRIX.  MAX DOF INC= -0.1000    
     FORCE CONVERGENCE VALUE  =  0.5686E-11  CRITERION=  0.1000E-02 <<< CONVERGED

 *** WARNING ***                         CP =     964.297   TIME= 13:28:20
 A reference force value times the tolerance is used by the              
 Newton-Raphson method for checking convergence.  The calculated         
 reference FORCE CONVERGENCE VALUE = 5.686478095E-12 is less than a      
 threshold.  This threshold defaults to 1.0 or is specified as MINREF    
 on the CNVTOL command.  Check results carefully.                        
     CURRENT CONVERGENCE VALUE=   0.000      CRITERION=   0.000     <<< CONVERGED
     DISP CONVERGENCE VALUE   =  0.9866E-11  CRITERION=  0.5000E-11
    EQUIL ITER   2 COMPLETED.  NEW TRIANG MATRIX.  MAX DOF INC=  0.9866E-11
     FORCE CONVERGENCE VALUE  =  0.1105E-14  CRITERION=  0.1000E-02 <<< CONVERGED
     CURRENT CONVERGENCE VALUE=   0.000      CRITERION=   0.000     <<< CONVERGED
     DISP CONVERGENCE VALUE   =  0.1919E-14  CRITERION=  0.5000E-11 <<< CONVERGED
    EQUIL ITER   3 COMPLETED.  NEW TRIANG MATRIX.  MAX DOF INC =  0.1919E-14
    >>> SOLUTION CONVERGED AFTER EQUILIBRIUM ITERATION   3
    >>> SOLUTION CONVERGED AFTER EQUILIBRIUM ITERATION   3
 *** LOAD STEP    99   SUBSTEP     1  COMPLETED.    CUM ITER =    402
 *** TIME =   99.0000         TIME INC =   1.00000    
 ****************************************************
 *************** FINISHED SOLVE FOR LS 99 *************
 ****************************************************
 ******************* SOLVE FOR LS 100 OF 100 ****************

 PRINTOUT RESUMED BY /GOP

 USE AUTOMATIC TIME STEPPING THIS LOAD STEP

 USE       1 SUBSTEPS INITIALLY THIS LOAD STEP FOR ALL  DEGREES OF FREEDOM
 FOR AUTOMATIC TIME STEPPING:
   USE     10 SUBSTEPS AS A MAXIMUM
   USE      1 SUBSTEPS AS A MINIMUM

 TIME=  100.00    

 ERASE THE CURRENT DATABASE OUTPUT CONTROL TABLE.


 WRITE ALL  ITEMS TO THE DATABASE WITH A FREQUENCY OF NONE
   FOR ALL APPLICABLE ENTITIES

 WRITE NSOL ITEMS TO THE DATABASE WITH A FREQUENCY OF ALL 
   FOR ALL APPLICABLE ENTITIES

 WRITE RSOL ITEMS TO THE DATABASE WITH A FREQUENCY OF ALL 
   FOR ALL APPLICABLE ENTITIES

 WRITE EANG ITEMS TO THE DATABASE WITH A FREQUENCY OF ALL 
   FOR ALL APPLICABLE ENTITIES

 WRITE ETMP ITEMS TO THE DATABASE WITH A FREQUENCY OF ALL 
   FOR ALL APPLICABLE ENTITIES

 WRITE VENG ITEMS TO THE DATABASE WITH A FREQUENCY OF ALL 
   FOR ALL APPLICABLE ENTITIES

 WRITE STRS ITEMS TO THE DATABASE WITH A FREQUENCY OF ALL 
   FOR ALL APPLICABLE ENTITIES

 WRITE EPEL ITEMS TO THE DATABASE WITH A FREQUENCY OF ALL 
   FOR ALL APPLICABLE ENTITIES

 WRITE EPPL ITEMS TO THE DATABASE WITH A FREQUENCY OF ALL 
   FOR ALL APPLICABLE ENTITIES

 WRITE CONT ITEMS TO THE DATABASE WITH A FREQUENCY OF ALL 
   FOR ALL APPLICABLE ENTITIES

 *****  ANSYS SOLVE    COMMAND  *****

 *** NOTE ***                            CP =     968.688   TIME= 13:28:25
 The Solution Control Option is only valid for single field structural,  
 single field thermal, single field diffusion, coupled                   
 thermal-diffusion analyses and coupled-field analyses with structural   
 degrees of freedom.  The SOLCONTROL,ON command (if present) has been    
 de-activated.                                                           

 *** NOTE ***                            CP =     968.688   TIME= 13:28:25
 This nonlinear analysis defaults to using the full Newton-Raphson       
 solution procedure.  This can be modified using the NROPT command.      

 *** ANSYS - ENGINEERING ANALYSIS SYSTEM  RELEASE 2020 R1          20.1     ***
 DISTRIBUTED ANSYS Academic Teaching Introductory              

 01055371  VERSION=WINDOWS x64   13:28:25  APR 02, 2020 CP=    968.797

                                                                               



                      L O A D   S T E P   O P T I O N S

   LOAD STEP NUMBER. . . . . . . . . . . . . . . .   100
   TIME AT END OF THE LOAD STEP. . . . . . . . . .  100.00    
   AUTOMATIC TIME STEPPING . . . . . . . . . . . .    ON
      INITIAL NUMBER OF SUBSTEPS . . . . . . . . .     1
      MAXIMUM NUMBER OF SUBSTEPS . . . . . . . . .    10
      MINIMUM NUMBER OF SUBSTEPS . . . . . . . . .     1
   MAXIMUM NUMBER OF EQUILIBRIUM ITERATIONS. . . .    25
   STEP CHANGE BOUNDARY CONDITIONS . . . . . . . .    NO
   TERMINATE ANALYSIS IF NOT CONVERGED . . . . . .YES (EXIT)  
   CONVERGENCE CONTROLS
      LABEL   REFERENCE    TOLERANCE  NORM     MINREF
       U      0.1000E-08   0.5000E-02   0     -1.000    
   PRINT OUTPUT CONTROLS . . . . . . . . . . . . .NO PRINTOUT
   DATABASE OUTPUT CONTROLS
      ITEM     FREQUENCY   COMPONENT
       ALL       NONE               
      NSOL        ALL               
      RSOL        ALL               
      EANG        ALL               
      ETMP        ALL               
      VENG        ALL               
      STRS        ALL               
      EPEL        ALL               
      EPPL        ALL               
      CONT        ALL               


     FORCE CONVERGENCE VALUE  =  0.1138E-10  CRITERION=  0.1000E-02
     CURRENT CONVERGENCE VALUE=   0.000      CRITERION=   0.000    
     DISP CONVERGENCE VALUE   =  0.1974E-10  CRITERION=  0.5000E-11
    EQUIL ITER   1 COMPLETED.  NEW TRIANG MATRIX.  MAX DOF INC= -0.1000    
     FORCE CONVERGENCE VALUE  =  0.5688E-11  CRITERION=  0.1000E-02 <<< CONVERGED

 *** WARNING ***                         CP =     971.359   TIME= 13:28:27
 A reference force value times the tolerance is used by the              
 Newton-Raphson method for checking convergence.  The calculated         
 reference FORCE CONVERGENCE VALUE = 4.225242052E-10 is less than a      
 threshold.  This threshold defaults to 1.0 or is specified as MINREF    
 on the CNVTOL command.  Check results carefully.                        
     CURRENT CONVERGENCE VALUE=   0.000      CRITERION=   0.000     <<< CONVERGED
     DISP CONVERGENCE VALUE   =  0.9868E-11  CRITERION=  0.5000E-11
    EQUIL ITER   2 COMPLETED.  NEW TRIANG MATRIX.  MAX DOF INC=  0.9868E-11
     FORCE CONVERGENCE VALUE  =  0.1546E-19  CRITERION=  0.1000E-02 <<< CONVERGED
     CURRENT CONVERGENCE VALUE=   0.000      CRITERION=   0.000     <<< CONVERGED
     DISP CONVERGENCE VALUE   =  0.1358E-20  CRITERION=  0.5000E-11 <<< CONVERGED
    EQUIL ITER   3 COMPLETED.  NEW TRIANG MATRIX.  MAX DOF INC = -0.1358E-20
    >>> SOLUTION CONVERGED AFTER EQUILIBRIUM ITERATION   3
    >>> SOLUTION CONVERGED AFTER EQUILIBRIUM ITERATION   3
 *** LOAD STEP   100   SUBSTEP     1  COMPLETED.    CUM ITER =    405
 *** TIME =   100.000         TIME INC =   1.00000    
 ****************************************************
 *************** FINISHED SOLVE FOR LS 100 *************

 *GET  _WALLASOL  FROM  ACTI  ITEM=TIME WALL  VALUE=  13.4755556    

 PRINTOUT RESUMED BY /GOP

 FINISH SOLUTION PROCESSING


 ***** ROUTINE COMPLETED *****  CP =       983.156



 *** ANSYS - ENGINEERING ANALYSIS SYSTEM  RELEASE 2020 R1          20.1     ***
 DISTRIBUTED ANSYS Academic Teaching Introductory              

 01055371  VERSION=WINDOWS x64   13:28:44  APR 02, 2020 CP=    983.234

                                                                               



          ***** ANSYS RESULTS INTERPRETATION (POST1) *****

 *** NOTE ***                            CP =     983.250   TIME= 13:28:44
 The model contains an element type ( TRANS126 ) that operates entirely  
 in the nodal coordinate system.  Viewing nodal displacements or forces  
 in other than the nodal coordinate system may be invalid.  See the      
 elements manual description for more information.                       

 *** NOTE ***                            CP =     983.312   TIME= 13:28:44
 Reading results into the database (SET command) will update the current 
 displacement and force boundary conditions in the database with the     
 values from the results file for that load set.  Note that any          
 subsequent solutions will use these values unless action is taken to    
 either SAVE the current values or not overwrite them (/EXIT,NOSAVE).    

 Set Encoding of XML File to:ISO-8859-1

 Set Output of XML File to:
     PARM,     ,     ,     ,     ,     ,     ,     ,     ,     ,     ,     ,
         ,     ,     ,     ,     ,     ,     ,

 DATABASE WRITTEN ON FILE  parm.xml                                                                                                                                                                                                                                                            

 EXIT THE ANSYS POST1 DATABASE PROCESSOR


 ***** ROUTINE COMPLETED *****  CP =       983.359



 PRINTOUT RESUMED BY /GOP

 *GET  _WALLDONE  FROM  ACTI  ITEM=TIME WALL  VALUE=  13.4791667    

 PARAMETER _PREPTIME =     16.00000000    

 PARAMETER _SOLVTIME =     1027.000000    

 PARAMETER _POSTTIME =     13.00000000    

 PARAMETER _TOTALTIM =     1056.000000    

 *GET  _DLBRATIO  FROM  ACTI  ITEM=SOLU DLBR  VALUE=  1.28025310    

 *GET  _COMBTIME  FROM  ACTI  ITEM=SOLU COMB  VALUE=  11.1161401    
 --- Number of total nodes = 12850
 --- Number of total elements = 7586
 --- Element load balance ratio = 1.2802531
 --- Time to combine distributed files = 11.1161401

 EXIT ANSYS WITHOUT SAVING DATABASE


 NUMBER OF WARNING MESSAGES ENCOUNTERED=        102
 NUMBER OF ERROR   MESSAGES ENCOUNTERED=          0

 *** NOTE ***                            CP =     983.609   TIME= 13:28:47
 The solution for the current simulation was performed using 2 cores.    
 The parallel performance of this simulation on this hardware indicates  
 that this simulation would benefit from using additional CPU cores.     
 Consider using more CPU cores, which may require additional HPC         
 licenses, when running this simulation again on the same hardware.      

+--------- D I S T R I B U T E D   A N S Y S   S T A T I S T I C S ------------+

Release: 2020 R1            Build: 20.1       Update: UP20191203   Platform: WINDOWS x64 
Date Run: 04/02/2020   Time: 13:28     Process ID: 5560
Operating System: Windows 10  (Build: 18363)

Processor Model: Intel(R) Core(TM)2 Quad  CPU   Q8200  @ 2.33GHz

Compiler: Intel(R) FORTRAN Compiler Version 19.0.0  (Build: 20190206)
          Intel(R) C/C++ Compiler Version 19.0.0  (Build: 20190206)
          Intel(R) Math Kernel Library Version 2019.0.3 Product Build 20190125

Number of machines requested            :    1
Total number of cores available         :    4
Number of physical cores available      :    4
Number of processes requested           :    2
Number of threads per process requested :    1
Total number of cores requested         :    2 (Distributed Memory Parallel)               
MPI Type: INTELMPI
MPI Version: Intel(R) MPI Library 2018 Update 3 for Windows* OS


GPU Acceleration: Not Requested

Job Name: file0
Input File: dummy.dat

  Core                Machine Name   Working Directory
 -----------------------------------------------------
     0             DESKTOP-8U7FQ8E   C:\Users\AkashLevy\Documents\GitHub\NEM-Relay-CAD\_ProjectScratch\ScrB4EF
     1             DESKTOP-8U7FQ8E   C:\Users\AkashLevy\Documents\GitHub\NEM-Relay-CAD\_ProjectScratch\ScrB4EF
 
Latency time from master to core     1 =   88.828 microseconds
 
Communication speed from master to core     1 =   936.63 MB/sec

Total CPU time for main thread                    :      970.5 seconds
Total CPU time summed for all threads             :      983.6 seconds

Elapsed time spent obtaining a license            :        1.5 seconds
Elapsed time spent pre-processing model (/PREP7)  :       16.1 seconds
Elapsed time spent solution - preprocessing       :       10.0 seconds
Elapsed time spent computing solution             :     1003.4 seconds
Elapsed time spent solution - postprocessing      :       11.1 seconds
Elapsed time spent post-processing model (/POST1) :        1.0 seconds
 
Equation solver used                              :            Sparse (unsymmetric)
Equation solver computational rate                :        6.3 Gflops
Equation solver effective I/O rate                :        3.2 GB/sec

Maximum total memory used                         :      334.0 MB
Maximum total memory allocated                    :     3136.0 MB
Total physical memory available                   :          4 GB

Total amount of I/O written to disk               :       16.8 GB
Total amount of I/O read from disk                :       18.0 GB

+------ E N D   D I S T R I B U T E D   A N S Y S   S T A T I S T I C S -------+


 *---------------------------------------------------------------------------*
 |                                                                           |
 |                       DISTRIBUTED ANSYS RUN COMPLETED                     |
 |                                                                           |
 |---------------------------------------------------------------------------|
 |                                                                           |
 | Ansys 2020 R1               Build 20.1         UP20191203     WINDOWS x64 |
 |                                                                           |
 |---------------------------------------------------------------------------|
 |                                                                           |
 | Database Requested(-db)  1024 MB    Scratch Memory Requested      1024 MB |
 | Maximum Database Used      10 MB    Maximum Scratch Memory Used    160 MB |
 |                                                                           |
 |---------------------------------------------------------------------------|
 |                                                                           |
 |        CP Time      (sec) =        983.609       Time  =  13:28:47        |
 |        Elapsed Time (sec) =       1062.000       Date  =  04/02/2020      |
 |                                                                           |
 *---------------------------------------------------------------------------*
