
 ANSYS Mechanical Enterprise                       


 *------------------------------------------------------------------*
 |                                                                  |
 |   W E L C O M E   T O   T H E   A N S Y S (R)  P R O G R A M     |
 |                                                                  |
 *------------------------------------------------------------------*




 ***************************************************************
 *            ANSYS 2020 R1          LEGAL NOTICES             *
 ***************************************************************
 *                                                             *
 * Copyright 1971-2020 ANSYS, Inc.  All rights reserved.       *
 * Unauthorized use, distribution or duplication is            *
 * prohibited.                                                 *
 *                                                             *
 * Ansys is a registered trademark of ANSYS, Inc. or its       *
 * subsidiaries in the United States or other countries.       *
 * See the ANSYS, Inc. online documentation or the ANSYS, Inc. *
 * documentation CD or online help for the complete Legal      *
 * Notice.                                                     *
 *                                                             *
 ***************************************************************
 *                                                             *
 * THIS ANSYS SOFTWARE PRODUCT AND PROGRAM DOCUMENTATION       *
 * INCLUDE TRADE SECRETS AND CONFIDENTIAL AND PROPRIETARY      *
 * PRODUCTS OF ANSYS, INC., ITS SUBSIDIARIES, OR LICENSORS.    *
 * The software products and documentation are furnished by    *
 * ANSYS, Inc. or its subsidiaries under a software license    *
 * agreement that contains provisions concerning               *
 * non-disclosure, copying, length and nature of use,          *
 * compliance with exporting laws, warranties, disclaimers,    *
 * limitations of liability, and remedies, and other           *
 * provisions.  The software products and documentation may be *
 * used, disclosed, transferred, or copied only in accordance  *
 * with the terms and conditions of that software license      *
 * agreement.                                                  *
 *                                                             *
 * ANSYS, Inc. is a UL registered                              *
 * ISO 9001:2015 company.                                      *
 *                                                             *
 ***************************************************************
 *                                                             *
 * This product is subject to U.S. laws governing export and   *
 * re-export.                                                  *
 *                                                             *
 * For U.S. Government users, except as specifically granted   *
 * by the ANSYS, Inc. software license agreement, the use,     *
 * duplication, or disclosure by the United States Government  *
 * is subject to restrictions stated in the ANSYS, Inc.        *
 * software license agreement and FAR 12.212 (for non-DOD      *
 * licenses).                                                  *
 *                                                             *
 ***************************************************************

 2020 R1 
     
 Point Releases and Patches installed:   
     
 ANSYS, Inc. Products 2020 R1
 SpaceClaim 2020 R1  
 AIM 2020 R1 
 Live (includes SpaceClaim) 2020 R1  
 Autodyn 2020 R1 
 LS-DYNA 2020 R1 
 CFX (includes CFD-Post) 2020 R1 
 Chemkin 2020 R1 
 EnSight 2020 R1 
 FENSAP-ICE 2020 R1  
 Fluent (includes CFD-Post) 2020 R1  
 Forte 2020 R1   
 Polyflow (includes CFD-Post) 2020 R1
 TurboGrid 2020 R1   
 ICEM CFD 2020 R1
 Aqwa 2020 R1
 Customization Files for User Programmable Features 2020 R1  
 Mechanical Products 2020 R1 
 Additive 2020 R1
 ANSYS Sherlock 2020 R1  
 Icepak (includes CFD-Post) 2020 R1  
 ACIS Geometry Interface 2020 R1 
 AutoCAD Geometry Interface 2020 R1  
 Catia, Version 4 Geometry Interface 2020 R1 
 Catia, Version 5 Geometry Interface 2020 R1 
 Catia, Version 6 Geometry Interface 2020 R1 
 Creo Elements/Direct Modeling Geometry Interface 2020 R1
 Creo Parametric Geometry Interface 2020 R1  
 Inventor Geometry Interface 2020 R1 
 JTOpen Geometry Interface 2020 R1   
 NX Geometry Interface 2020 R1   
 Parasolid Geometry Interface  2020 R1   
 Solid Edge Geometry Interface 2020 R1   
 SOLIDWORKS Geometry Interface 2020 R1   
 ANSYS, Inc. License Manager 2020 R1 


          *****  ANSYS COMMAND LINE ARGUMENTS  *****
  BATCH MODE REQUESTED (-b)    = NOLIST
  INPUT FILE COPY MODE (-c)    = COPY
  DISTRIBUTED MEMORY PARALLEL REQUESTED
       2 PARALLEL PROCESSES REQUESTED WITH SINGLE THREAD PER PROCESS
    TOTAL OF     2 CORES REQUESTED
  INPUT FILE NAME              = C:\Users\Akash Levy\Documents\NEM-Relay-CAD\ansys\_ProjectScratch\Scr45B6\dummy.dat
  OUTPUT FILE NAME             = C:\Users\Akash Levy\Documents\NEM-Relay-CAD\ansys\_ProjectScratch\Scr45B6\solve.out
  START-UP FILE MODE           = NOREAD
  STOP FILE MODE               = NOREAD

 RELEASE= 2020 R1              BUILD= 20.1      UP20191203   VERSION=WINDOWS x64 
 CURRENT JOBNAME=file0  20:42:54  APR 16, 2020 CP=      0.500


 PARAMETER _DS_PROGRESS =     999.0000000    

 /INPUT FILE= ds.dat  LINE=       0



 *** NOTE ***                            CP =       0.969   TIME= 20:42:55
 The /CONFIG,NOELDB command is not valid in a Distributed ANSYS          
 solution.  Command is ignored.                                          

 *GET  _WALLSTRT  FROM  ACTI  ITEM=TIME WALL  VALUE=  20.7152778    

 TITLE= 
 Unknown                                                                       


 SET PARAMETER DIMENSIONS ON  _WB_PROJECTSCRATCH_DIR
  TYPE=STRI  DIMENSIONS=      248        1        1

 PARAMETER _WB_PROJECTSCRATCH_DIR(1) = C:\Users\Akash Levy\Documents\NEM-Relay-CAD\ansys\_ProjectScratch\Scr45B6\

 SET PARAMETER DIMENSIONS ON  _WB_SOLVERFILES_DIR
  TYPE=STRI  DIMENSIONS=      248        1        1

 PARAMETER _WB_SOLVERFILES_DIR(1) = C:\Users\Akash Levy\Documents\NEM-Relay-CAD\ansys\relay_files\dp0\global\MECH\SYS-10\Contact Tool\

 SET PARAMETER DIMENSIONS ON  _WB_USERFILES_DIR
  TYPE=STRI  DIMENSIONS=      248        1        1

 PARAMETER _WB_USERFILES_DIR(1) = C:\Users\Akash Levy\Documents\NEM-Relay-CAD\ansys\relay_files\user_files\
 --- Data in consistent MKS units. See Solving Units in the help system for more

 MKS UNITS SPECIFIED FOR INTERNAL    
  LENGTH        (l)  = METER (M)
  MASS          (M)  = KILOGRAM (KG)
  TIME          (t)  = SECOND (SEC)
  TEMPERATURE   (T)  = CELSIUS (C)
  TOFFSET            = 273.0
  CHARGE        (Q)  = COULOMB
  FORCE         (f)  = NEWTON (N) (KG-M/SEC2)
  HEAT               = JOULE (N-M)

  PRESSURE           = PASCAL (NEWTON/M**2)
  ENERGY        (W)  = JOULE (N-M)
  POWER         (P)  = WATT (N-M/SEC)
  CURRENT       (i)  = AMPERE (COULOMBS/SEC)
  CAPACITANCE   (C)  = FARAD
  INDUCTANCE    (L)  = HENRY
  MAGNETIC FLUX      = WEBER
  RESISTANCE    (R)  = OHM
  ELECTRIC POTENTIAL = VOLT

 INPUT  UNITS ARE ALSO SET TO MKS 

 *** ANSYS - ENGINEERING ANALYSIS SYSTEM  RELEASE 2020 R1          20.1     ***
 DISTRIBUTED ANSYS Mechanical Enterprise                       

 20120530  VERSION=WINDOWS x64   20:42:55  APR 16, 2020 CP=      0.969

 Unknown                                                                       



          ***** ANSYS ANALYSIS DEFINITION (PREP7) *****
 *********** Nodes for the whole assembly ***********
 *********** Elements for Body 1 "Relay Main Body" ***********
 *********** Elements for Body 2 "Contact 1" ***********
 *********** Elements for Body 3 "Contact 2" ***********
 *********** Elements for Body 4 "Contact 3" ***********
 *********** Elements for Body 5 "Contact 4" ***********
 *********** Elements for Body 6 "Contact 5" ***********
 *********** Elements for Body 7 "Contact 6" ***********
 *********** Elements for Body 8 "Contact 7" ***********
 *********** Elements for Body 9 "Contact 8" ***********
 *********** Elements for Body 10 "Anchor 1" ***********
 *********** Elements for Body 11 "Anchor 2" ***********
 *********** Elements for Body 12 "Anchor 3" ***********
 *********** Elements for Body 13 "Anchor 4" ***********
 *********** Elements for Body 14 "Dielectric" ***********
 *********** Elements for Body 15 "Substrate" ***********
 *********** Send User Defined Coordinate System(s) ***********
 *********** Send Materials ***********
 *********** Create Contact "Contact Region 16" ***********
             Real Constant Set For Above Contact Is 17 & 16
 *********** Create Contact "Contact Region 17" ***********
             Real Constant Set For Above Contact Is 19 & 18
 *********** Create Contact "Contact Region 18" ***********
             Real Constant Set For Above Contact Is 21 & 20
 *********** Create Contact "Contact Region 19" ***********
             Real Constant Set For Above Contact Is 23 & 22
 *********** Create Contact "Contact Region 20" ***********
             Real Constant Set For Above Contact Is 25 & 24
 *********** Create Contact "Contact Region 21" ***********
             Real Constant Set For Above Contact Is 27 & 26
 *********** Create Contact "Contact Region 22" ***********
             Real Constant Set For Above Contact Is 29 & 28
 *********** Create Contact "Contact Region 23" ***********
             Real Constant Set For Above Contact Is 31 & 30
 *********** Create Contact "Contact Region 24" ***********
             Real Constant Set For Above Contact Is 33 & 32
 *********** Create Contact "Contact Region 25" ***********
             Real Constant Set For Above Contact Is 35 & 34
 *********** Create Contact "Contact Region 26" ***********
             Real Constant Set For Above Contact Is 37 & 36
 *********** Create Contact "Contact Region 27" ***********
             Real Constant Set For Above Contact Is 39 & 38
 *********** Create Contact "Contact Region 28" ***********
             Real Constant Set For Above Contact Is 41 & 40
 *********** Create Contact "Contact Region 29" ***********
             Real Constant Set For Above Contact Is 43 & 42
 *********** Create Contact "Contact Region 30" ***********
             Real Constant Set For Above Contact Is 45 & 44
 *********** Create Contact "Contact Region 31" ***********
             Real Constant Set For Above Contact Is 47 & 46
 *********** Create Contact "Contact Region 32" ***********
             Real Constant Set For Above Contact Is 49 & 48
 *********** Create Contact "Frictional - Dielectric To Substrate" ***********
             Real Constant Set For Above Contact Is 51 & 50
 *********** Create Contact "Frictional - Contact 5 To Substrate" ***********
             Real Constant Set For Above Contact Is 53 & 52
 *********** Create Contact "Frictional - Contact 5 To Substrate" ***********
             Real Constant Set For Above Contact Is 55 & 54
 *********** Create Contact "Frictional - Contact 4 To Substrate" ***********
             Real Constant Set For Above Contact Is 57 & 56
 *********** Create Contact "Frictional - Contact 4 To Substrate" ***********
             Real Constant Set For Above Contact Is 59 & 58
 *********** Create Contact "Frictional - Contact 7 To Substrate" ***********
             Real Constant Set For Above Contact Is 61 & 60
 *********** Create Contact "Frictional - Contact 7 To Substrate" ***********
             Real Constant Set For Above Contact Is 63 & 62
 *********** Create Contact "Frictional - Contact 3 To Substrate" ***********
             Real Constant Set For Above Contact Is 65 & 64
 *********** Create Contact "Frictional - Contact 3 To Substrate" ***********
             Real Constant Set For Above Contact Is 67 & 66
 *********** Create Contact "Frictional - Contact 6 To Substrate" ***********
             Real Constant Set For Above Contact Is 69 & 68
 *********** Create Contact "Frictional - Contact 6 To Substrate" ***********
             Real Constant Set For Above Contact Is 71 & 70
 *********** Create Contact "Frictional - Contact 2 To Substrate" ***********
             Real Constant Set For Above Contact Is 73 & 72
 *********** Create Contact "Frictional - Contact 2 To Substrate" ***********
             Real Constant Set For Above Contact Is 75 & 74
 *********** Create Contact "Frictional - Contact 8 To Substrate" ***********
             Real Constant Set For Above Contact Is 77 & 76
 *********** Create Contact "Frictional - Contact 8 To Substrate" ***********
             Real Constant Set For Above Contact Is 79 & 78
 *********** Create Contact "Frictional - Contact 1 To Substrate" ***********
             Real Constant Set For Above Contact Is 81 & 80
 *********** Create Contact "Frictional - Contact 1 To Substrate" ***********
             Real Constant Set For Above Contact Is 83 & 82
 *********** Send Named Selection as Node Component ***********


 ***** ROUTINE COMPLETED *****  CP =         1.359


 --- Number of total nodes = 20124
 --- Number of contact elements = 9779
 --- Number of spring elements = 0
 --- Number of bearing elements = 0
 --- Number of solid elements = 7689
 --- Number of condensed parts = 0
 --- Number of total elements = 17468

 *GET  _WALLBSOL  FROM  ACTI  ITEM=TIME WALL  VALUE=  20.7155556    

 *****  ANSYS SOLUTION ROUTINE  *****

 DO NOT SAVE ANY RESTART FILES AT ALL

 ERASE THE CURRENT DATABASE OUTPUT CONTROL TABLE.


 WRITE ALL  ITEMS TO THE DATABASE WITH A FREQUENCY OF NONE
   FOR ALL APPLICABLE ENTITIES

 WRITE NSOL ITEMS TO THE DATABASE WITH A FREQUENCY OF LAST
   FOR ALL APPLICABLE ENTITIES

 WRITE STRS ITEMS TO THE DATABASE WITH A FREQUENCY OF LAST
   FOR ALL APPLICABLE ENTITIES

 WRITE CONT ITEMS TO THE DATABASE WITH A FREQUENCY OF LAST
   FOR ALL APPLICABLE ENTITIES

 WRITE EANG ITEMS TO THE DATABASE WITH A FREQUENCY OF LAST
   FOR ALL APPLICABLE ENTITIES

 WRITE VENG ITEMS TO THE DATABASE WITH A FREQUENCY OF LAST
   FOR ALL APPLICABLE ENTITIES

 WRITE ETMP ITEMS TO THE DATABASE WITH A FREQUENCY OF LAST
   FOR ALL APPLICABLE ENTITIES

 NLDIAG: Nonlinear diagnostics CONT option is set to ON. 
         Writing frequency : each ITERATION.

 CONTACT INFORMATION PRINTOUT LEVEL       1

 SELECT       FOR ITEM=ENAM COMPONENT=    
  IN RANGE       169 TO        177 STEP          1

       9779  ELEMENTS (OF      17468  DEFINED) SELECTED BY  ESEL  COMMAND.

 SELECT      ALL NODES HAVING ANY ELEMENT IN ELEMENT SET.

       9996 NODES (OF      20124  DEFINED) SELECTED FROM
     9779 SELECTED ELEMENTS BY NSLE COMMAND.

 SELECT      ALL ELEMENTS HAVING ANY NODE IN NODAL SET.

      17090 ELEMENTS (OF      17468  DEFINED) SELECTED FROM
     9996 SELECTED NODES BY  ESLN COMMAND.

 SELECT      ALL NODES HAVING ANY ELEMENT IN ELEMENT SET.

      19832 NODES (OF      20124  DEFINED) SELECTED FROM
    17090 SELECTED ELEMENTS BY NSLE COMMAND.

 CHECK INITIAL OPEN/CLOSED STATUS OF SELECTED CONTACT ELEMENTS
      AND POST INITIAL CONTACT STATUS

 *** SELECTION OF ELEMENT TECHNOLOGIES FOR APPLICABLE ELEMENTS ***
      --- GIVE SUGGESTIONS AND RESET THE KEY OPTIONS ---

 ELEMENT TYPE    1 IS SOLID187. IT IS NOT ASSOCIATED WITH FULLY INCOMPRESSIBLE
 HYPERELASTIC MATERIALS. NO SUGGESTION IS AVAILABLE AND NO RESETTING IS NEEDED.

 ELEMENT TYPE    2 IS SOLID187. IT IS NOT ASSOCIATED WITH FULLY INCOMPRESSIBLE
 HYPERELASTIC MATERIALS. NO SUGGESTION IS AVAILABLE AND NO RESETTING IS NEEDED.

 ELEMENT TYPE    3 IS SOLID187. IT IS NOT ASSOCIATED WITH FULLY INCOMPRESSIBLE
 HYPERELASTIC MATERIALS. NO SUGGESTION IS AVAILABLE AND NO RESETTING IS NEEDED.

 ELEMENT TYPE    4 IS SOLID187. IT IS NOT ASSOCIATED WITH FULLY INCOMPRESSIBLE
 HYPERELASTIC MATERIALS. NO SUGGESTION IS AVAILABLE AND NO RESETTING IS NEEDED.

 ELEMENT TYPE    5 IS SOLID187. IT IS NOT ASSOCIATED WITH FULLY INCOMPRESSIBLE
 HYPERELASTIC MATERIALS. NO SUGGESTION IS AVAILABLE AND NO RESETTING IS NEEDED.

 ELEMENT TYPE    6 IS SOLID187. IT IS NOT ASSOCIATED WITH FULLY INCOMPRESSIBLE
 HYPERELASTIC MATERIALS. NO SUGGESTION IS AVAILABLE AND NO RESETTING IS NEEDED.

 ELEMENT TYPE    7 IS SOLID187. IT IS NOT ASSOCIATED WITH FULLY INCOMPRESSIBLE
 HYPERELASTIC MATERIALS. NO SUGGESTION IS AVAILABLE AND NO RESETTING IS NEEDED.

 ELEMENT TYPE    8 IS SOLID187. IT IS NOT ASSOCIATED WITH FULLY INCOMPRESSIBLE
 HYPERELASTIC MATERIALS. NO SUGGESTION IS AVAILABLE AND NO RESETTING IS NEEDED.

 ELEMENT TYPE    9 IS SOLID187. IT IS NOT ASSOCIATED WITH FULLY INCOMPRESSIBLE
 HYPERELASTIC MATERIALS. NO SUGGESTION IS AVAILABLE AND NO RESETTING IS NEEDED.

 ELEMENT TYPE   10 IS SOLID186. KEYOPT(2) IS ALREADY SET AS SUGGESTED AND NO
 RESETTING IS NEEDED.

 ELEMENT TYPE   11 IS SOLID186. KEYOPT(2) IS ALREADY SET AS SUGGESTED AND NO
 RESETTING IS NEEDED.

 ELEMENT TYPE   12 IS SOLID186. KEYOPT(2) IS ALREADY SET AS SUGGESTED AND NO
 RESETTING IS NEEDED.

 ELEMENT TYPE   13 IS SOLID186. KEYOPT(2) IS ALREADY SET AS SUGGESTED AND NO
 RESETTING IS NEEDED.

 ELEMENT TYPE   14 IS SOLID187. IT IS NOT ASSOCIATED WITH FULLY INCOMPRESSIBLE
 HYPERELASTIC MATERIALS. NO SUGGESTION IS AVAILABLE AND NO RESETTING IS NEEDED.

 ELEMENT TYPE   15 IS SOLID186. KEYOPT(2) IS ALREADY SET AS SUGGESTED AND NO
 RESETTING IS NEEDED.



 *** NOTE ***                            CP =       1.406   TIME= 20:42:56
 The conditions for direct assembly have been met.  No .emat or .erot    
 files will be produced.                                                 

 SOLUTION MONITORING INFO IS WRITTEN TO FILE= file.mntr                                                                                                                                                                                                                                                           

 *** NOTE ***                            CP =       2.344   TIME= 20:42:57
 Symmetric Deformable- deformable contact pair identified by real        
 constant set 16 and contact element type 16 has been set up.  The       
 companion pair has real constant set ID 17.  Both pairs should have     
 the same behavior.                                                      
 ANSYS will keep the current pair and deactivate its companion pair,     
 resulting in asymmetric contact.                                        
 Linear contact is defined
 Contact algorithm: Augmented Lagrange method
 Contact detection at: Gauss integration point
 Contact stiffness factor FKN                  1.0000    
 The resulting initial contact stiffness      0.24481E+20
 Default penetration tolerance factor FTOLN   0.10000    
 The resulting penetration tolerance          0.11846E-07
 Default opening contact stiffness OPSF will be used.
 Default tangent stiffness factor FKT          1.0000    
 Use constant contact stiffness
 Default Max. friction stress TAUMAX          0.10000E+21
 Average contact surface length               0.20433E-06
 Average contact pair depth                   0.11846E-06
 Default pinball region factor PINB           0.25000    
 The resulting pinball region                 0.29614E-07
 Initial penetration/gap is excluded.
 Bonded contact (always) is defined.

 *** NOTE ***                            CP =       2.344   TIME= 20:42:57
 Max.  Initial penetration 1.32348898E-23 was detected between contact   
 element 130839 and target element 133064.                               
 ****************************************
  

 *** NOTE ***                            CP =       2.344   TIME= 20:42:57
 Symmetric Deformable- deformable contact pair identified by real        
 constant set 17 and contact element type 16 has been set up.  The       
 companion pair has real constant set ID 16.  Both pairs should have     
 the same behavior.                                                      
 ANSYS will deactivate the current pair and keep its companion pair,     
 resulting in asymmetric contact.                                        
 Linear contact is defined
 Contact algorithm: Augmented Lagrange method
 Contact detection at: Gauss integration point
 Contact stiffness factor FKN                  1.0000    
 The resulting initial contact stiffness      0.24481E+20
 Default penetration tolerance factor FTOLN   0.10000    
 The resulting penetration tolerance          0.58110E-08
 Default opening contact stiffness OPSF will be used.
 Default tangent stiffness factor FKT          1.0000    
 Use constant contact stiffness
 Default Max. friction stress TAUMAX          0.10000E+21
 Average contact surface length               0.18247E-06
 Average contact pair depth                   0.58110E-07
 Default pinball region factor PINB           0.25000    
 The resulting pinball region                 0.14528E-07
 Initial penetration/gap is excluded.
 Bonded contact (always) is defined.

 *** NOTE ***                            CP =       2.344   TIME= 20:42:57
 Max.  Initial penetration 2.64697796E-23 was detected between contact   
 element 131982 and target element 130153.                               
 ****************************************
  

 *** NOTE ***                            CP =       2.344   TIME= 20:42:57
 Symmetric Deformable- deformable contact pair identified by real        
 constant set 18 and contact element type 18 has been set up.  The       
 companion pair has real constant set ID 19.  Both pairs should have     
 the same behavior.                                                      
 ANSYS will keep the current pair and deactivate its companion pair,     
 resulting in asymmetric contact.                                        
 Linear contact is defined
 Contact algorithm: Augmented Lagrange method
 Contact detection at: Gauss integration point
 Contact stiffness factor FKN                  1.0000    
 The resulting initial contact stiffness      0.10939E+21
 Default penetration tolerance factor FTOLN   0.10000    
 The resulting penetration tolerance          0.30562E-08
 Default opening contact stiffness OPSF will be used.
 Default tangent stiffness factor FKT          1.0000    
 Use constant contact stiffness
 Default Max. friction stress TAUMAX          0.10000E+21
 Average contact surface length               0.88870E-07
 Average contact pair depth                   0.30562E-07
 Default pinball region factor PINB           0.25000    
 The resulting pinball region                 0.76405E-08
 Initial penetration/gap is excluded.
 Bonded contact (always) is defined.

 *** NOTE ***                            CP =       2.344   TIME= 20:42:57
 Max.  Initial penetration 0 was detected between contact element 133574 
 and target element 133648.                                              
 ****************************************
  

 *** NOTE ***                            CP =       2.344   TIME= 20:42:57
 Symmetric Deformable- deformable contact pair identified by real        
 constant set 19 and contact element type 18 has been set up.  The       
 companion pair has real constant set ID 18.  Both pairs should have     
 the same behavior.                                                      
 ANSYS will deactivate the current pair and keep its companion pair,     
 resulting in asymmetric contact.                                        
 Linear contact is defined
 Contact algorithm: Augmented Lagrange method
 Contact detection at: Gauss integration point
 Contact stiffness factor FKN                  1.0000    
 The resulting initial contact stiffness      0.10939E+21
 Default penetration tolerance factor FTOLN   0.10000    
 The resulting penetration tolerance          0.68561E-08
 Default opening contact stiffness OPSF will be used.
 Default tangent stiffness factor FKT          1.0000    
 Use constant contact stiffness
 Default Max. friction stress TAUMAX          0.10000E+21
 Average contact surface length               0.22111E-06
 Average contact pair depth                   0.68561E-07
 Default pinball region factor PINB           0.25000    
 The resulting pinball region                 0.17140E-07
 Initial penetration/gap is excluded.
 Bonded contact (always) is defined.

 *** NOTE ***                            CP =       2.344   TIME= 20:42:57
 Max.  Initial penetration 0 was detected between contact element 133628 
 and target element 133550.                                              
 ****************************************
  

 *** NOTE ***                            CP =       2.344   TIME= 20:42:57
 Symmetric Deformable- deformable contact pair identified by real        
 constant set 20 and contact element type 20 has been set up.  The       
 companion pair has real constant set ID 21.  Both pairs should have     
 the same behavior.                                                      
 ANSYS will keep the current pair and deactivate its companion pair,     
 resulting in asymmetric contact.                                        
 Linear contact is defined
 Contact algorithm: Augmented Lagrange method
 Contact detection at: Gauss integration point
 Contact stiffness factor FKN                  1.0000    
 The resulting initial contact stiffness      0.11720E+21
 Default penetration tolerance factor FTOLN   0.10000    
 The resulting penetration tolerance          0.30577E-08
 Default opening contact stiffness OPSF will be used.
 Default tangent stiffness factor FKT          1.0000    
 Use constant contact stiffness
 Default Max. friction stress TAUMAX          0.10000E+21
 Average contact surface length               0.88944E-07
 Average contact pair depth                   0.30577E-07
 Default pinball region factor PINB           0.25000    
 The resulting pinball region                 0.76443E-08
 Initial penetration/gap is excluded.
 Bonded contact (always) is defined.

 *** NOTE ***                            CP =       2.344   TIME= 20:42:57
 Max.  Initial penetration 0 was detected between contact element 133714 
 and target element 133795.                                              
 ****************************************
  

 *** NOTE ***                            CP =       2.344   TIME= 20:42:57
 Symmetric Deformable- deformable contact pair identified by real        
 constant set 21 and contact element type 20 has been set up.  The       
 companion pair has real constant set ID 20.  Both pairs should have     
 the same behavior.                                                      
 ANSYS will deactivate the current pair and keep its companion pair,     
 resulting in asymmetric contact.                                        
 Linear contact is defined
 Contact algorithm: Augmented Lagrange method
 Contact detection at: Gauss integration point
 Contact stiffness factor FKN                  1.0000    
 The resulting initial contact stiffness      0.11720E+21
 Default penetration tolerance factor FTOLN   0.10000    
 The resulting penetration tolerance          0.63993E-08
 Default opening contact stiffness OPSF will be used.
 Default tangent stiffness factor FKT          1.0000    
 Use constant contact stiffness
 Default Max. friction stress TAUMAX          0.10000E+21
 Average contact surface length               0.20766E-06
 Average contact pair depth                   0.63993E-07
 Default pinball region factor PINB           0.25000    
 The resulting pinball region                 0.15998E-07
 Initial penetration/gap is excluded.
 Bonded contact (always) is defined.

 *** NOTE ***                            CP =       2.344   TIME= 20:42:57
 Max.  Initial penetration 0 was detected between contact element 133770 
 and target element 133682.                                              
 ****************************************
  

 *** NOTE ***                            CP =       2.344   TIME= 20:42:57
 Symmetric Deformable- deformable contact pair identified by real        
 constant set 22 and contact element type 22 has been set up.  The       
 companion pair has real constant set ID 23.  Both pairs should have     
 the same behavior.                                                      
 ANSYS will keep the current pair and deactivate its companion pair,     
 resulting in asymmetric contact.                                        
 Linear contact is defined
 Contact algorithm: Augmented Lagrange method
 Contact detection at: Gauss integration point
 Contact stiffness factor FKN                  1.0000    
 The resulting initial contact stiffness      0.10845E+21
 Default penetration tolerance factor FTOLN   0.10000    
 The resulting penetration tolerance          0.30562E-08
 Default opening contact stiffness OPSF will be used.
 Default tangent stiffness factor FKT          1.0000    
 Use constant contact stiffness
 Default Max. friction stress TAUMAX          0.10000E+21
 Average contact surface length               0.88684E-07
 Average contact pair depth                   0.30562E-07
 Default pinball region factor PINB           0.25000    
 The resulting pinball region                 0.76405E-08
 Initial penetration/gap is excluded.
 Bonded contact (always) is defined.

 *** NOTE ***                            CP =       2.344   TIME= 20:42:57
 Max.  Initial penetration 0 was detected between contact element 133872 
 and target element 133955.                                              
 ****************************************
  

 *** NOTE ***                            CP =       2.344   TIME= 20:42:57
 Symmetric Deformable- deformable contact pair identified by real        
 constant set 23 and contact element type 22 has been set up.  The       
 companion pair has real constant set ID 22.  Both pairs should have     
 the same behavior.                                                      
 ANSYS will deactivate the current pair and keep its companion pair,     
 resulting in asymmetric contact.                                        
 Linear contact is defined
 Contact algorithm: Augmented Lagrange method
 Contact detection at: Gauss integration point
 Contact stiffness factor FKN                  1.0000    
 The resulting initial contact stiffness      0.10845E+21
 Default penetration tolerance factor FTOLN   0.10000    
 The resulting penetration tolerance          0.69158E-08
 Default opening contact stiffness OPSF will be used.
 Default tangent stiffness factor FKT          1.0000    
 Use constant contact stiffness
 Default Max. friction stress TAUMAX          0.10000E+21
 Average contact surface length               0.22566E-06
 Average contact pair depth                   0.69158E-07
 Default pinball region factor PINB           0.25000    
 The resulting pinball region                 0.17290E-07
 Initial penetration/gap is excluded.
 Bonded contact (always) is defined.

 *** NOTE ***                            CP =       2.344   TIME= 20:42:57
 Max.  Initial penetration 0 was detected between contact element 133926 
 and target element 133850.                                              
 ****************************************
  

 *** NOTE ***                            CP =       2.344   TIME= 20:42:57
 Symmetric Deformable- deformable contact pair identified by real        
 constant set 24 and contact element type 24 has been set up.  The       
 companion pair has real constant set ID 25.  Both pairs should have     
 the same behavior.                                                      
 ANSYS will keep the current pair and deactivate its companion pair,     
 resulting in asymmetric contact.                                        
 Linear contact is defined
 Contact algorithm: Augmented Lagrange method
 Contact detection at: Gauss integration point
 Contact stiffness factor FKN                  1.0000    
 The resulting initial contact stiffness      0.11745E+21
 Default penetration tolerance factor FTOLN   0.10000    
 The resulting penetration tolerance          0.30577E-08
 Default opening contact stiffness OPSF will be used.
 Default tangent stiffness factor FKT          1.0000    
 Use constant contact stiffness
 Default Max. friction stress TAUMAX          0.10000E+21
 Average contact surface length               0.88944E-07
 Average contact pair depth                   0.30577E-07
 Default pinball region factor PINB           0.25000    
 The resulting pinball region                 0.76443E-08
 Initial penetration/gap is excluded.
 Bonded contact (always) is defined.

 *** NOTE ***                            CP =       2.344   TIME= 20:42:57
 Max.  Initial penetration 0 was detected between contact element 134012 
 and target element 134103.                                              
 ****************************************
  

 *** NOTE ***                            CP =       2.344   TIME= 20:42:57
 Symmetric Deformable- deformable contact pair identified by real        
 constant set 25 and contact element type 24 has been set up.  The       
 companion pair has real constant set ID 24.  Both pairs should have     
 the same behavior.                                                      
 ANSYS will deactivate the current pair and keep its companion pair,     
 resulting in asymmetric contact.                                        
 Linear contact is defined
 Contact algorithm: Augmented Lagrange method
 Contact detection at: Gauss integration point
 Contact stiffness factor FKN                  1.0000    
 The resulting initial contact stiffness      0.11745E+21
 Default penetration tolerance factor FTOLN   0.10000    
 The resulting penetration tolerance          0.63857E-08
 Default opening contact stiffness OPSF will be used.
 Default tangent stiffness factor FKT          1.0000    
 Use constant contact stiffness
 Default Max. friction stress TAUMAX          0.10000E+21
 Average contact surface length               0.20827E-06
 Average contact pair depth                   0.63857E-07
 Default pinball region factor PINB           0.25000    
 The resulting pinball region                 0.15964E-07
 Initial penetration/gap is excluded.
 Bonded contact (always) is defined.

 *** NOTE ***                            CP =       2.344   TIME= 20:42:57
 Max.  Initial penetration 0 was detected between contact element 134068 
 and target element 133978.                                              
 ****************************************
  

 *** NOTE ***                            CP =       2.344   TIME= 20:42:57
 Symmetric Deformable- deformable contact pair identified by real        
 constant set 26 and contact element type 26 has been set up.  The       
 companion pair has real constant set ID 27.  Both pairs should have     
 the same behavior.                                                      
 ANSYS will keep the current pair and deactivate its companion pair,     
 resulting in asymmetric contact.                                        
 Linear contact is defined
 Contact algorithm: Augmented Lagrange method
 Contact detection at: Gauss integration point
 Contact stiffness factor FKN                  1.0000    
 The resulting initial contact stiffness      0.12912E+21
 Default penetration tolerance factor FTOLN   0.10000    
 The resulting penetration tolerance          0.27337E-08
 Default opening contact stiffness OPSF will be used.
 Default tangent stiffness factor FKT          1.0000    
 Use constant contact stiffness
 Default Max. friction stress TAUMAX          0.10000E+21
 Average contact surface length               0.87026E-07
 Average contact pair depth                   0.27337E-07
 Default pinball region factor PINB           0.25000    
 The resulting pinball region                 0.68343E-08
 Initial penetration/gap is excluded.
 Bonded contact (always) is defined.

 *** NOTE ***                            CP =       2.344   TIME= 20:42:57
 Max.  Initial penetration 0 was detected between contact element 134168 
 and target element 134298.                                              
 ****************************************
  

 *** NOTE ***                            CP =       2.344   TIME= 20:42:57
 Symmetric Deformable- deformable contact pair identified by real        
 constant set 27 and contact element type 26 has been set up.  The       
 companion pair has real constant set ID 26.  Both pairs should have     
 the same behavior.                                                      
 ANSYS will deactivate the current pair and keep its companion pair,     
 resulting in asymmetric contact.                                        
 Linear contact is defined
 Contact algorithm: Augmented Lagrange method
 Contact detection at: Gauss integration point
 Contact stiffness factor FKN                  1.0000    
 The resulting initial contact stiffness      0.12912E+21
 Default penetration tolerance factor FTOLN   0.10000    
 The resulting penetration tolerance          0.58086E-08
 Default opening contact stiffness OPSF will be used.
 Default tangent stiffness factor FKT          1.0000    
 Use constant contact stiffness
 Default Max. friction stress TAUMAX          0.10000E+21
 Average contact surface length               0.18007E-06
 Average contact pair depth                   0.58086E-07
 Default pinball region factor PINB           0.25000    
 The resulting pinball region                 0.14521E-07
 Initial penetration/gap is excluded.
 Bonded contact (always) is defined.

 *** NOTE ***                            CP =       2.344   TIME= 20:42:57
 Max.  Initial penetration 0 was detected between contact element 134220 
 and target element 134155.                                              
 ****************************************
  

 *** NOTE ***                            CP =       2.344   TIME= 20:42:57
 Symmetric Deformable- deformable contact pair identified by real        
 constant set 28 and contact element type 28 has been set up.  The       
 companion pair has real constant set ID 29.  Both pairs should have     
 the same behavior.                                                      
 ANSYS will keep the current pair and deactivate its companion pair,     
 resulting in asymmetric contact.                                        
 Linear contact is defined
 Contact algorithm: Augmented Lagrange method
 Contact detection at: Gauss integration point
 Contact stiffness factor FKN                  1.0000    
 The resulting initial contact stiffness      0.13069E+21
 Default penetration tolerance factor FTOLN   0.10000    
 The resulting penetration tolerance          0.29318E-08
 Default opening contact stiffness OPSF will be used.
 Default tangent stiffness factor FKT          1.0000    
 Use constant contact stiffness
 Default Max. friction stress TAUMAX          0.10000E+21
 Average contact surface length               0.92227E-07
 Average contact pair depth                   0.29318E-07
 Default pinball region factor PINB           0.25000    
 The resulting pinball region                 0.73295E-08
 Initial penetration/gap is excluded.
 Bonded contact (always) is defined.

 *** NOTE ***                            CP =       2.344   TIME= 20:42:57
 Max.  Initial penetration 0 was detected between contact element 134352 
 and target element 134455.                                              
 ****************************************
  

 *** NOTE ***                            CP =       2.344   TIME= 20:42:57
 Symmetric Deformable- deformable contact pair identified by real        
 constant set 29 and contact element type 28 has been set up.  The       
 companion pair has real constant set ID 28.  Both pairs should have     
 the same behavior.                                                      
 ANSYS will deactivate the current pair and keep its companion pair,     
 resulting in asymmetric contact.                                        
 Linear contact is defined
 Contact algorithm: Augmented Lagrange method
 Contact detection at: Gauss integration point
 Contact stiffness factor FKN                  1.0000    
 The resulting initial contact stiffness      0.13069E+21
 Default penetration tolerance factor FTOLN   0.10000    
 The resulting penetration tolerance          0.57389E-08
 Default opening contact stiffness OPSF will be used.
 Default tangent stiffness factor FKT          1.0000    
 Use constant contact stiffness
 Default Max. friction stress TAUMAX          0.10000E+21
 Average contact surface length               0.17536E-06
 Average contact pair depth                   0.57389E-07
 Default pinball region factor PINB           0.25000    
 The resulting pinball region                 0.14347E-07
 Initial penetration/gap is excluded.
 Bonded contact (always) is defined.

 *** NOTE ***                            CP =       2.344   TIME= 20:42:57
 Max.  Initial penetration 0 was detected between contact element 134400 
 and target element 134306.                                              
 ****************************************
  

 *** NOTE ***                            CP =       2.344   TIME= 20:42:57
 Symmetric Deformable- deformable contact pair identified by real        
 constant set 30 and contact element type 30 has been set up.  The       
 companion pair has real constant set ID 31.  Both pairs should have     
 the same behavior.                                                      
 ANSYS will keep the current pair and deactivate its companion pair,     
 resulting in asymmetric contact.                                        
 Linear contact is defined
 Contact algorithm: Augmented Lagrange method
 Contact detection at: Gauss integration point
 Contact stiffness factor FKN                  1.0000    
 The resulting initial contact stiffness      0.12743E+21
 Default penetration tolerance factor FTOLN   0.10000    
 The resulting penetration tolerance          0.26426E-08
 Default opening contact stiffness OPSF will be used.
 Default tangent stiffness factor FKT          1.0000    
 Use constant contact stiffness
 Default Max. friction stress TAUMAX          0.10000E+21
 Average contact surface length               0.80032E-07
 Average contact pair depth                   0.26426E-07
 Default pinball region factor PINB           0.25000    
 The resulting pinball region                 0.66065E-08
 Initial penetration/gap is excluded.
 Bonded contact (always) is defined.

 *** NOTE ***                            CP =       2.359   TIME= 20:42:57
 Max.  Initial penetration 0 was detected between contact element 134544 
 and target element 134648.                                              
 ****************************************
  

 *** NOTE ***                            CP =       2.359   TIME= 20:42:57
 Symmetric Deformable- deformable contact pair identified by real        
 constant set 31 and contact element type 30 has been set up.  The       
 companion pair has real constant set ID 30.  Both pairs should have     
 the same behavior.                                                      
 ANSYS will deactivate the current pair and keep its companion pair,     
 resulting in asymmetric contact.                                        
 Linear contact is defined
 Contact algorithm: Augmented Lagrange method
 Contact detection at: Gauss integration point
 Contact stiffness factor FKN                  1.0000    
 The resulting initial contact stiffness      0.12743E+21
 Default penetration tolerance factor FTOLN   0.10000    
 The resulting penetration tolerance          0.58854E-08
 Default opening contact stiffness OPSF will be used.
 Default tangent stiffness factor FKT          1.0000    
 Use constant contact stiffness
 Default Max. friction stress TAUMAX          0.10000E+21
 Average contact surface length               0.18548E-06
 Average contact pair depth                   0.58854E-07
 Default pinball region factor PINB           0.25000    
 The resulting pinball region                 0.14714E-07
 Initial penetration/gap is excluded.
 Bonded contact (always) is defined.

 *** NOTE ***                            CP =       2.359   TIME= 20:42:57
 Max.  Initial penetration 0 was detected between contact element 134602 
 and target element 134513.                                              
 ****************************************
  

 *** NOTE ***                            CP =       2.359   TIME= 20:42:57
 Symmetric Deformable- deformable contact pair identified by real        
 constant set 32 and contact element type 32 has been set up.  The       
 companion pair has real constant set ID 33.  Both pairs should have     
 the same behavior.                                                      
 ANSYS will keep the current pair and deactivate its companion pair,     
 resulting in asymmetric contact.                                        
 Linear contact is defined
 Contact algorithm: Augmented Lagrange method
 Contact detection at: Gauss integration point
 Contact stiffness factor FKN                  1.0000    
 The resulting initial contact stiffness      0.12797E+21
 Default penetration tolerance factor FTOLN   0.10000    
 The resulting penetration tolerance          0.29308E-08
 Default opening contact stiffness OPSF will be used.
 Default tangent stiffness factor FKT          1.0000    
 Use constant contact stiffness
 Default Max. friction stress TAUMAX          0.10000E+21
 Average contact surface length               0.92467E-07
 Average contact pair depth                   0.29308E-07
 Default pinball region factor PINB           0.25000    
 The resulting pinball region                 0.73269E-08
 Initial penetration/gap is excluded.
 Bonded contact (always) is defined.

 *** NOTE ***                            CP =       2.359   TIME= 20:42:57
 Max.  Initial penetration 0 was detected between contact element 134734 
 and target element 134869.                                              
 ****************************************
  

 *** NOTE ***                            CP =       2.359   TIME= 20:42:57
 Symmetric Deformable- deformable contact pair identified by real        
 constant set 33 and contact element type 32 has been set up.  The       
 companion pair has real constant set ID 32.  Both pairs should have     
 the same behavior.                                                      
 ANSYS will deactivate the current pair and keep its companion pair,     
 resulting in asymmetric contact.                                        
 Linear contact is defined
 Contact algorithm: Augmented Lagrange method
 Contact detection at: Gauss integration point
 Contact stiffness factor FKN                  1.0000    
 The resulting initial contact stiffness      0.12797E+21
 Default penetration tolerance factor FTOLN   0.10000    
 The resulting penetration tolerance          0.58607E-08
 Default opening contact stiffness OPSF will be used.
 Default tangent stiffness factor FKT          1.0000    
 Use constant contact stiffness
 Default Max. friction stress TAUMAX          0.10000E+21
 Average contact surface length               0.18366E-06
 Average contact pair depth                   0.58607E-07
 Default pinball region factor PINB           0.25000    
 The resulting pinball region                 0.14652E-07
 Initial penetration/gap is excluded.
 Bonded contact (always) is defined.

 *** NOTE ***                            CP =       2.359   TIME= 20:42:57
 Max.  Initial penetration 0 was detected between contact element 134782 
 and target element 134727.                                              
 ****************************************
  

 *** NOTE ***                            CP =       2.359   TIME= 20:42:57
 Symmetric Deformable- deformable contact pair identified by real        
 constant set 34 and contact element type 34 has been set up.  The       
 companion pair has real constant set ID 35.  Both pairs should have     
 the same behavior.                                                      
 ANSYS will keep the current pair and deactivate its companion pair,     
 resulting in asymmetric contact.                                        
 Linear contact is defined
 Contact algorithm: Augmented Lagrange method
 Contact detection at: Gauss integration point
 Contact stiffness factor FKN                  1.0000    
 The resulting initial contact stiffness      0.58000E+20
 Default penetration tolerance factor FTOLN   0.10000    
 The resulting penetration tolerance          0.50000E-08
 Default opening contact stiffness OPSF will be used.
 Default tangent stiffness factor FKT          1.0000    
 Use constant contact stiffness
 Default Max. friction stress TAUMAX          0.10000E+21
 Average contact surface length               0.66667E-07
 Average contact pair depth                   0.50000E-07
 Default pinball region factor PINB           0.25000    
 The resulting pinball region                 0.12500E-07
 Initial penetration/gap is excluded.
 Bonded contact (always) is defined.

 *** NOTE ***                            CP =       2.359   TIME= 20:42:57
 Max.  Initial penetration 0 was detected between contact element 134906 
 and target element 134970.                                              
 ****************************************
  

 *** NOTE ***                            CP =       2.359   TIME= 20:42:57
 Symmetric Deformable- deformable contact pair identified by real        
 constant set 35 and contact element type 34 has been set up.  The       
 companion pair has real constant set ID 34.  Both pairs should have     
 the same behavior.                                                      
 ANSYS will deactivate the current pair and keep its companion pair,     
 resulting in asymmetric contact.                                        
 Linear contact is defined
 Contact algorithm: Augmented Lagrange method
 Contact detection at: Gauss integration point
 Contact stiffness factor FKN                  1.0000    
 The resulting initial contact stiffness      0.58000E+20
 Default penetration tolerance factor FTOLN   0.10000    
 The resulting penetration tolerance          0.67128E-08
 Default opening contact stiffness OPSF will be used.
 Default tangent stiffness factor FKT          1.0000    
 Use constant contact stiffness
 Default Max. friction stress TAUMAX          0.10000E+21
 Average contact surface length               0.21990E-06
 Average contact pair depth                   0.67128E-07
 Default pinball region factor PINB           0.25000    
 The resulting pinball region                 0.16782E-07
 Initial penetration/gap is excluded.
 Bonded contact (always) is defined.

 *** NOTE ***                            CP =       2.359   TIME= 20:42:57
 Max.  Initial penetration 0 was detected between contact element 134943 
 and target element 134895.                                              
 ****************************************
  

 *** NOTE ***                            CP =       2.359   TIME= 20:42:57
 Symmetric Deformable- deformable contact pair identified by real        
 constant set 36 and contact element type 36 has been set up.  The       
 companion pair has real constant set ID 37.  Both pairs should have     
 the same behavior.                                                      
 ANSYS will keep the current pair and deactivate its companion pair,     
 resulting in asymmetric contact.                                        
 Linear contact is defined
 Contact algorithm: Augmented Lagrange method
 Contact detection at: Gauss integration point
 Contact stiffness factor FKN                  1.0000    
 The resulting initial contact stiffness      0.54167E+20
 Default penetration tolerance factor FTOLN   0.10000    
 The resulting penetration tolerance          0.50000E-08
 Default opening contact stiffness OPSF will be used.
 Default tangent stiffness factor FKT          1.0000    
 Use constant contact stiffness
 Default Max. friction stress TAUMAX          0.10000E+21
 Average contact surface length               0.66667E-07
 Average contact pair depth                   0.50000E-07
 Default pinball region factor PINB           0.25000    
 The resulting pinball region                 0.12500E-07
 Initial penetration/gap is excluded.
 Bonded contact (always) is defined.

 *** NOTE ***                            CP =       2.359   TIME= 20:42:57
 Max.  Initial penetration 2.64697796E-23 was detected between contact   
 element 135035 and target element 135056.                               
 ****************************************
  

 *** NOTE ***                            CP =       2.359   TIME= 20:42:57
 Symmetric Deformable- deformable contact pair identified by real        
 constant set 37 and contact element type 36 has been set up.  The       
 companion pair has real constant set ID 36.  Both pairs should have     
 the same behavior.                                                      
 ANSYS will deactivate the current pair and keep its companion pair,     
 resulting in asymmetric contact.                                        
 Linear contact is defined
 Contact algorithm: Augmented Lagrange method
 Contact detection at: Gauss integration point
 Contact stiffness factor FKN                  1.0000    
 The resulting initial contact stiffness      0.54167E+20
 Default penetration tolerance factor FTOLN   0.10000    
 The resulting penetration tolerance          0.13846E-07
 Default opening contact stiffness OPSF will be used.
 Default tangent stiffness factor FKT          1.0000    
 Use constant contact stiffness
 Default Max. friction stress TAUMAX          0.10000E+21
 Average contact surface length               0.46154E-06
 Average contact pair depth                   0.13846E-06
 Default pinball region factor PINB           0.25000    
 The resulting pinball region                 0.34615E-07
 Initial penetration/gap is excluded.
 Bonded contact (always) is defined.

 *** NOTE ***                            CP =       2.359   TIME= 20:42:57
 Max.  Initial penetration 1.32348898E-23 was detected between contact   
 element 135052 and target element 134998.                               
 ****************************************
  

 *** NOTE ***                            CP =       2.359   TIME= 20:42:57
 Symmetric Deformable- deformable contact pair identified by real        
 constant set 38 and contact element type 38 has been set up.  The       
 companion pair has real constant set ID 39.  Both pairs should have     
 the same behavior.                                                      
 ANSYS will keep the current pair and deactivate its companion pair,     
 resulting in asymmetric contact.                                        
 Linear contact is defined
 Contact algorithm: Augmented Lagrange method
 Contact detection at: Gauss integration point
 Contact stiffness factor FKN                  1.0000    
 The resulting initial contact stiffness      0.58000E+20
 Default penetration tolerance factor FTOLN   0.10000    
 The resulting penetration tolerance          0.50000E-08
 Default opening contact stiffness OPSF will be used.
 Default tangent stiffness factor FKT          1.0000    
 Use constant contact stiffness
 Default Max. friction stress TAUMAX          0.10000E+21
 Average contact surface length               0.66667E-07
 Average contact pair depth                   0.50000E-07
 Default pinball region factor PINB           0.25000    
 The resulting pinball region                 0.12500E-07
 Initial penetration/gap is excluded.
 Bonded contact (always) is defined.

 *** NOTE ***                            CP =       2.359   TIME= 20:42:57
 Max.  Initial penetration 0 was detected between contact element 135096 
 and target element 135163.                                              
 ****************************************
  

 *** NOTE ***                            CP =       2.359   TIME= 20:42:57
 Symmetric Deformable- deformable contact pair identified by real        
 constant set 39 and contact element type 38 has been set up.  The       
 companion pair has real constant set ID 38.  Both pairs should have     
 the same behavior.                                                      
 ANSYS will deactivate the current pair and keep its companion pair,     
 resulting in asymmetric contact.                                        
 Linear contact is defined
 Contact algorithm: Augmented Lagrange method
 Contact detection at: Gauss integration point
 Contact stiffness factor FKN                  1.0000    
 The resulting initial contact stiffness      0.58000E+20
 Default penetration tolerance factor FTOLN   0.10000    
 The resulting penetration tolerance          0.70820E-08
 Default opening contact stiffness OPSF will be used.
 Default tangent stiffness factor FKT          1.0000    
 Use constant contact stiffness
 Default Max. friction stress TAUMAX          0.10000E+21
 Average contact surface length               0.22998E-06
 Average contact pair depth                   0.70820E-07
 Default pinball region factor PINB           0.25000    
 The resulting pinball region                 0.17705E-07
 Initial penetration/gap is excluded.
 Bonded contact (always) is defined.

 *** NOTE ***                            CP =       2.359   TIME= 20:42:57
 Max.  Initial penetration 0 was detected between contact element 135138 
 and target element 135076.                                              
 ****************************************
  

 *** NOTE ***                            CP =       2.359   TIME= 20:42:57
 Symmetric Deformable- deformable contact pair identified by real        
 constant set 40 and contact element type 40 has been set up.  The       
 companion pair has real constant set ID 41.  Both pairs should have     
 the same behavior.                                                      
 ANSYS will keep the current pair and deactivate its companion pair,     
 resulting in asymmetric contact.                                        
 Linear contact is defined
 Contact algorithm: Augmented Lagrange method
 Contact detection at: Gauss integration point
 Contact stiffness factor FKN                  1.0000    
 The resulting initial contact stiffness      0.54167E+20
 Default penetration tolerance factor FTOLN   0.10000    
 The resulting penetration tolerance          0.50000E-08
 Default opening contact stiffness OPSF will be used.
 Default tangent stiffness factor FKT          1.0000    
 Use constant contact stiffness
 Default Max. friction stress TAUMAX          0.10000E+21
 Average contact surface length               0.66667E-07
 Average contact pair depth                   0.50000E-07
 Default pinball region factor PINB           0.25000    
 The resulting pinball region                 0.12500E-07
 Initial penetration/gap is excluded.
 Bonded contact (always) is defined.

 *** NOTE ***                            CP =       2.359   TIME= 20:42:57
 Max.  Initial penetration 1.32348898E-23 was detected between contact   
 element 135206 and target element 135249.                               
 ****************************************
  

 *** NOTE ***                            CP =       2.359   TIME= 20:42:57
 Symmetric Deformable- deformable contact pair identified by real        
 constant set 41 and contact element type 40 has been set up.  The       
 companion pair has real constant set ID 40.  Both pairs should have     
 the same behavior.                                                      
 ANSYS will deactivate the current pair and keep its companion pair,     
 resulting in asymmetric contact.                                        
 Linear contact is defined
 Contact algorithm: Augmented Lagrange method
 Contact detection at: Gauss integration point
 Contact stiffness factor FKN                  1.0000    
 The resulting initial contact stiffness      0.54167E+20
 Default penetration tolerance factor FTOLN   0.10000    
 The resulting penetration tolerance          0.13846E-07
 Default opening contact stiffness OPSF will be used.
 Default tangent stiffness factor FKT          1.0000    
 Use constant contact stiffness
 Default Max. friction stress TAUMAX          0.10000E+21
 Average contact surface length               0.46154E-06
 Average contact pair depth                   0.13846E-06
 Default pinball region factor PINB           0.25000    
 The resulting pinball region                 0.34615E-07
 Initial penetration/gap is excluded.
 Bonded contact (always) is defined.

 *** NOTE ***                            CP =       2.359   TIME= 20:42:57
 Max.  Initial penetration 2.64697796E-23 was detected between contact   
 element 135242 and target element 135191.                               
 ****************************************
  

 *** NOTE ***                            CP =       2.359   TIME= 20:42:57
 Symmetric Deformable- deformable contact pair identified by real        
 constant set 42 and contact element type 42 has been set up.  The       
 companion pair has real constant set ID 43.  Both pairs should have     
 the same behavior.                                                      
 ANSYS will keep the current pair and deactivate its companion pair,     
 resulting in asymmetric contact.                                        
 Linear contact is defined
 Contact algorithm: Augmented Lagrange method
 Contact detection at: Gauss integration point
 Contact stiffness factor FKN                  1.0000    
 The resulting initial contact stiffness      0.58000E+20
 Default penetration tolerance factor FTOLN   0.10000    
 The resulting penetration tolerance          0.50000E-08
 Default opening contact stiffness OPSF will be used.
 Default tangent stiffness factor FKT          1.0000    
 Use constant contact stiffness
 Default Max. friction stress TAUMAX          0.10000E+21
 Average contact surface length               0.66667E-07
 Average contact pair depth                   0.50000E-07
 Default pinball region factor PINB           0.25000    
 The resulting pinball region                 0.12500E-07
 Initial penetration/gap is excluded.
 Bonded contact (always) is defined.

 *** NOTE ***                            CP =       2.359   TIME= 20:42:57
 Max.  Initial penetration 0 was detected between contact element 135286 
 and target element 135355.                                              
 ****************************************
  

 *** NOTE ***                            CP =       2.359   TIME= 20:42:57
 Symmetric Deformable- deformable contact pair identified by real        
 constant set 43 and contact element type 42 has been set up.  The       
 companion pair has real constant set ID 42.  Both pairs should have     
 the same behavior.                                                      
 ANSYS will deactivate the current pair and keep its companion pair,     
 resulting in asymmetric contact.                                        
 Linear contact is defined
 Contact algorithm: Augmented Lagrange method
 Contact detection at: Gauss integration point
 Contact stiffness factor FKN                  1.0000    
 The resulting initial contact stiffness      0.58000E+20
 Default penetration tolerance factor FTOLN   0.10000    
 The resulting penetration tolerance          0.70820E-08
 Default opening contact stiffness OPSF will be used.
 Default tangent stiffness factor FKT          1.0000    
 Use constant contact stiffness
 Default Max. friction stress TAUMAX          0.10000E+21
 Average contact surface length               0.22998E-06
 Average contact pair depth                   0.70820E-07
 Default pinball region factor PINB           0.25000    
 The resulting pinball region                 0.17705E-07
 Initial penetration/gap is excluded.
 Bonded contact (always) is defined.

 *** NOTE ***                            CP =       2.359   TIME= 20:42:57
 Max.  Initial penetration 0 was detected between contact element 135328 
 and target element 135258.                                              
 ****************************************
  

 *** NOTE ***                            CP =       2.359   TIME= 20:42:57
 Symmetric Deformable- deformable contact pair identified by real        
 constant set 44 and contact element type 44 has been set up.  The       
 companion pair has real constant set ID 45.  Both pairs should have     
 the same behavior.                                                      
 ANSYS will keep the current pair and deactivate its companion pair,     
 resulting in asymmetric contact.                                        
 Linear contact is defined
 Contact algorithm: Augmented Lagrange method
 Contact detection at: Gauss integration point
 Contact stiffness factor FKN                  1.0000    
 The resulting initial contact stiffness      0.54167E+20
 Default penetration tolerance factor FTOLN   0.10000    
 The resulting penetration tolerance          0.50000E-08
 Default opening contact stiffness OPSF will be used.
 Default tangent stiffness factor FKT          1.0000    
 Use constant contact stiffness
 Default Max. friction stress TAUMAX          0.10000E+21
 Average contact surface length               0.66667E-07
 Average contact pair depth                   0.50000E-07
 Default pinball region factor PINB           0.25000    
 The resulting pinball region                 0.12500E-07
 Initial penetration/gap is excluded.
 Bonded contact (always) is defined.

 *** NOTE ***                            CP =       2.359   TIME= 20:42:57
 Max.  Initial penetration 2.64697796E-23 was detected between contact   
 element 135424 and target element 135437.                               
 ****************************************
  

 *** NOTE ***                            CP =       2.359   TIME= 20:42:57
 Symmetric Deformable- deformable contact pair identified by real        
 constant set 45 and contact element type 44 has been set up.  The       
 companion pair has real constant set ID 44.  Both pairs should have     
 the same behavior.                                                      
 ANSYS will deactivate the current pair and keep its companion pair,     
 resulting in asymmetric contact.                                        
 Linear contact is defined
 Contact algorithm: Augmented Lagrange method
 Contact detection at: Gauss integration point
 Contact stiffness factor FKN                  1.0000    
 The resulting initial contact stiffness      0.54167E+20
 Default penetration tolerance factor FTOLN   0.10000    
 The resulting penetration tolerance          0.13846E-07
 Default opening contact stiffness OPSF will be used.
 Default tangent stiffness factor FKT          1.0000    
 Use constant contact stiffness
 Default Max. friction stress TAUMAX          0.10000E+21
 Average contact surface length               0.46154E-06
 Average contact pair depth                   0.13846E-06
 Default pinball region factor PINB           0.25000    
 The resulting pinball region                 0.34615E-07
 Initial penetration/gap is excluded.
 Bonded contact (always) is defined.

 *** NOTE ***                            CP =       2.359   TIME= 20:42:57
 Max.  Initial penetration 1.32348898E-23 was detected between contact   
 element 135432 and target element 135392.                               
 ****************************************
  

 *** NOTE ***                            CP =       2.359   TIME= 20:42:57
 Symmetric Deformable- deformable contact pair identified by real        
 constant set 46 and contact element type 46 has been set up.  The       
 companion pair has real constant set ID 47.  Both pairs should have     
 the same behavior.                                                      
 ANSYS will keep the current pair and deactivate its companion pair,     
 resulting in asymmetric contact.                                        
 Linear contact is defined
 Contact algorithm: Augmented Lagrange method
 Contact detection at: Gauss integration point
 Contact stiffness factor FKN                  1.0000    
 The resulting initial contact stiffness      0.58000E+20
 Default penetration tolerance factor FTOLN   0.10000    
 The resulting penetration tolerance          0.50000E-08
 Default opening contact stiffness OPSF will be used.
 Default tangent stiffness factor FKT          1.0000    
 Use constant contact stiffness
 Default Max. friction stress TAUMAX          0.10000E+21
 Average contact surface length               0.66667E-07
 Average contact pair depth                   0.50000E-07
 Default pinball region factor PINB           0.25000    
 The resulting pinball region                 0.12500E-07
 Initial penetration/gap is excluded.
 Bonded contact (always) is defined.

 *** NOTE ***                            CP =       2.359   TIME= 20:42:57
 Max.  Initial penetration 0 was detected between contact element 135476 
 and target element 135548.                                              
 ****************************************
  

 *** NOTE ***                            CP =       2.359   TIME= 20:42:57
 Symmetric Deformable- deformable contact pair identified by real        
 constant set 47 and contact element type 46 has been set up.  The       
 companion pair has real constant set ID 46.  Both pairs should have     
 the same behavior.                                                      
 ANSYS will deactivate the current pair and keep its companion pair,     
 resulting in asymmetric contact.                                        
 Linear contact is defined
 Contact algorithm: Augmented Lagrange method
 Contact detection at: Gauss integration point
 Contact stiffness factor FKN                  1.0000    
 The resulting initial contact stiffness      0.58000E+20
 Default penetration tolerance factor FTOLN   0.10000    
 The resulting penetration tolerance          0.68686E-08
 Default opening contact stiffness OPSF will be used.
 Default tangent stiffness factor FKT          1.0000    
 Use constant contact stiffness
 Default Max. friction stress TAUMAX          0.10000E+21
 Average contact surface length               0.22435E-06
 Average contact pair depth                   0.68686E-07
 Default pinball region factor PINB           0.25000    
 The resulting pinball region                 0.17172E-07
 Initial penetration/gap is excluded.
 Bonded contact (always) is defined.

 *** NOTE ***                            CP =       2.359   TIME= 20:42:57
 Max.  Initial penetration 0 was detected between contact element 135517 
 and target element 135459.                                              
 ****************************************
  

 *** NOTE ***                            CP =       2.359   TIME= 20:42:57
 Symmetric Deformable- deformable contact pair identified by real        
 constant set 48 and contact element type 48 has been set up.  The       
 companion pair has real constant set ID 49.  Both pairs should have     
 the same behavior.                                                      
 ANSYS will keep the current pair and deactivate its companion pair,     
 resulting in asymmetric contact.                                        
 Linear contact is defined
 Contact algorithm: Augmented Lagrange method
 Contact detection at: Gauss integration point
 Contact stiffness factor FKN                  1.0000    
 The resulting initial contact stiffness      0.54167E+20
 Default penetration tolerance factor FTOLN   0.10000    
 The resulting penetration tolerance          0.50000E-08
 Default opening contact stiffness OPSF will be used.
 Default tangent stiffness factor FKT          1.0000    
 Use constant contact stiffness
 Default Max. friction stress TAUMAX          0.10000E+21
 Average contact surface length               0.66667E-07
 Average contact pair depth                   0.50000E-07
 Default pinball region factor PINB           0.25000    
 The resulting pinball region                 0.12500E-07
 Initial penetration/gap is excluded.
 Bonded contact (always) is defined.

 *** NOTE ***                            CP =       2.359   TIME= 20:42:57
 Max.  Initial penetration 2.64697796E-23 was detected between contact   
 element 135597 and target element 135628.                               
 ****************************************
  

 *** NOTE ***                            CP =       2.359   TIME= 20:42:57
 Symmetric Deformable- deformable contact pair identified by real        
 constant set 49 and contact element type 48 has been set up.  The       
 companion pair has real constant set ID 48.  Both pairs should have     
 the same behavior.                                                      
 ANSYS will deactivate the current pair and keep its companion pair,     
 resulting in asymmetric contact.                                        
 Linear contact is defined
 Contact algorithm: Augmented Lagrange method
 Contact detection at: Gauss integration point
 Contact stiffness factor FKN                  1.0000    
 The resulting initial contact stiffness      0.54167E+20
 Default penetration tolerance factor FTOLN   0.10000    
 The resulting penetration tolerance          0.13846E-07
 Default opening contact stiffness OPSF will be used.
 Default tangent stiffness factor FKT          1.0000    
 Use constant contact stiffness
 Default Max. friction stress TAUMAX          0.10000E+21
 Average contact surface length               0.46154E-06
 Average contact pair depth                   0.13846E-06
 Default pinball region factor PINB           0.25000    
 The resulting pinball region                 0.34615E-07
 Initial penetration/gap is excluded.
 Bonded contact (always) is defined.

 *** NOTE ***                            CP =       2.359   TIME= 20:42:57
 Max.  Initial penetration 1.32348898E-23 was detected between contact   
 element 135624 and target element 135567.                               
 ****************************************
  

 *** NOTE ***                            CP =       2.359   TIME= 20:42:57
 Deformable-deformable contact pair identified by real constant set 50   
 and contact element type 50 has been set up.                            
 Small sliding logic is assumed
 Contact algorithm: Augmented Lagrange method
 Contact detection at: Gauss integration point
 Contact stiffness factor FKN                  1.0000    
 The resulting initial contact stiffness      0.12949E+21
 Default penetration tolerance factor FTOLN   0.10000    
 The resulting penetration tolerance          0.57922E-08
 Max. initial friction coefficient MU         0.50000    
 Default tangent stiffness factor FKT          1.0000    
 Default elastic slip factor SLTOL            0.10000E-01
 The resulting elastic slip tolerance         0.18124E-08
 Update contact stiffness at each iteration
 Default Max. friction stress TAUMAX          0.10000E+21
 Average contact surface length               0.18124E-06
 Average contact pair depth                   0.57922E-07
 Default pinball region factor PINB            1.0000    
 The resulting pinball region                 0.57922E-07
 *WARNING*: Initial penetration is included.

 *** NOTE ***                            CP =       2.359   TIME= 20:42:57
 No contact was detected for this contact pair.                          
 ****************************************
  

 *** NOTE ***                            CP =       2.359   TIME= 20:42:57
 Deformable-deformable contact pair identified by real constant set 52   
 and contact element type 52 has been set up.                            
 Small sliding logic is assumed
 Contact algorithm: Augmented Lagrange method
 Contact detection at: Gauss integration point
 Contact stiffness factor FKN                  1.0000    
 The resulting initial contact stiffness      0.13819E+21
 Default penetration tolerance factor FTOLN   0.10000    
 The resulting penetration tolerance          0.54274E-08
 Max. initial friction coefficient MU         0.50000    
 Default tangent stiffness factor FKT          1.0000    
 Default elastic slip factor SLTOL            0.10000E-01
 The resulting elastic slip tolerance         0.66177E-09
 Update contact stiffness at each iteration
 Default Max. friction stress TAUMAX          0.10000E+21
 Average contact surface length               0.66177E-07
 Average contact pair depth                   0.54274E-07
 Default pinball region factor PINB            1.0000    
 *WARNING*: The default pinball radius may be too small to capture       
 contacting zone under small sliding assumption.  Redefine the pinball   
 radius if necessary.                                                    
 The resulting pinball region                 0.54274E-07
 *WARNING*: Initial penetration is included.

 *** NOTE ***                            CP =       2.359   TIME= 20:42:57
 Min.  Initial gap 5.192000573E-08 was detected between contact element  
 136778 and target element 136913.                                       
 You may move entire target surface by: x= 6.346526996E-24, y=           
 -7.651128866E-09, z= 5.135316175E-08, to bring it in contact.           
 ****************************************
  

 *** NOTE ***                            CP =       2.359   TIME= 20:42:57
 Deformable-deformable contact pair identified by real constant set 54   
 and contact element type 54 has been set up.                            
 Small sliding logic is assumed
 Contact algorithm: Augmented Lagrange method
 Contact detection at: Gauss integration point
 Contact stiffness factor FKN                  1.0000    
 The resulting initial contact stiffness      0.13904E+21
 Default penetration tolerance factor FTOLN   0.10000    
 The resulting penetration tolerance          0.53941E-08
 Max. initial friction coefficient MU         0.50000    
 Default tangent stiffness factor FKT          1.0000    
 Default elastic slip factor SLTOL            0.10000E-01
 The resulting elastic slip tolerance         0.66177E-09
 Update contact stiffness at each iteration
 Default Max. friction stress TAUMAX          0.10000E+21
 Average contact surface length               0.66177E-07
 Average contact pair depth                   0.53941E-07
 Default pinball region factor PINB            1.0000    
 *WARNING*: The default pinball radius may be too small to capture       
 contacting zone under small sliding assumption.  Redefine the pinball   
 radius if necessary.                                                    
 The resulting pinball region                 0.53941E-07
 *WARNING*: Initial penetration is included.

 *** NOTE ***                            CP =       2.359   TIME= 20:42:57
 Min.  Initial gap 5.192000573E-08 was detected between contact element  
 136981 and target element 137108.                                       
 You may move entire target surface by: x= -7.651128866E-09, y=          
 -6.346526996E-24, z= 5.135316175E-08, to bring it in contact.           
 ****************************************
  

 *** NOTE ***                            CP =       2.359   TIME= 20:42:57
 Deformable-deformable contact pair identified by real constant set 56   
 and contact element type 56 has been set up.                            
 Small sliding logic is assumed
 Contact algorithm: Augmented Lagrange method
 Contact detection at: Gauss integration point
 Contact stiffness factor FKN                  1.0000    
 The resulting initial contact stiffness      0.13995E+21
 Default penetration tolerance factor FTOLN   0.10000    
 The resulting penetration tolerance          0.53590E-08
 Max. initial friction coefficient MU         0.50000    
 Default tangent stiffness factor FKT          1.0000    
 Default elastic slip factor SLTOL            0.10000E-01
 The resulting elastic slip tolerance         0.65675E-09
 Update contact stiffness at each iteration
 Default Max. friction stress TAUMAX          0.10000E+21
 Average contact surface length               0.65675E-07
[...]
 Max.  Pinball distance 4.993606869E-08.                                 
 One of the contact searching regions contains at least 4 target         
 elements.                                                               
 *************************************************
  
 *************************************************
  SUMMARY FOR CONTACT PAIR IDENTIFIED BY REAL CONSTANT SET          64
 Min.  Gap of 5.115551376E-08 has been detected between contact element  
 137941 and target element 138008.                                       
 Max.  Pinball distance 5.359039619E-08.                                 
 One of the contact searching regions contains at least 4 target         
 elements.                                                               
 *************************************************
  
 *************************************************
  SUMMARY FOR CONTACT PAIR IDENTIFIED BY REAL CONSTANT SET          66
 Min.  Gap of 5.115551376E-08 has been detected between contact element  
 138133 and target element 138198.                                       
 Max.  Pinball distance 5.359039622E-08.                                 
 One of the contact searching regions contains at least 4 target         
 elements.                                                               
 *************************************************
  
 *************************************************
  SUMMARY FOR CONTACT PAIR IDENTIFIED BY REAL CONSTANT SET          68
 Min.  Gap of 5.192000573E-08 has been detected between contact element  
 138326 and target element 138405.                                       
 Max.  Pinball distance 5.429400041E-08.                                 
 One of the contact searching regions contains at least 4 target         
 elements.                                                               
 *************************************************
  
 *************************************************
  SUMMARY FOR CONTACT PAIR IDENTIFIED BY REAL CONSTANT SET          70
 Min.  Gap of 5.279798976E-08 has been detected between contact element  
 138532 and target element 138600.                                       
 Max.  Pinball distance 5.303914684E-08.                                 
 One of the contact searching regions contains at least 4 target         
 elements.                                                               
 *************************************************
  
 *************************************************
  SUMMARY FOR CONTACT PAIR IDENTIFIED BY REAL CONSTANT SET          72
 Min.  Gap of 5.115551376E-08 has been detected between contact element  
 138727 and target element 138804.                                       
 Max.  Pinball distance 5.359039672E-08.                                 
 One of the contact searching regions contains at least 4 target         
 elements.                                                               
 *************************************************
  
 *************************************************
  SUMMARY FOR CONTACT PAIR IDENTIFIED BY REAL CONSTANT SET          74
 Min.  Gap of 5.115551376E-08 has been detected between contact element  
 138907 and target element 139022.                                       
 Max.  Pinball distance 5.359039685E-08.                                 
 One of the contact searching regions contains at least 4 target         
 elements.                                                               
 *************************************************
  
 *************************************************
  SUMMARY FOR CONTACT PAIR IDENTIFIED BY REAL CONSTANT SET          76
 Min.  Gap of 5.279798976E-08 has been detected between contact element  
 139116 and target element 139231.                                       
 Max.  Pinball distance 5.303914458E-08.                                 
 One of the contact searching regions contains at least 4 target         
 elements.                                                               
 *************************************************
  
 *************************************************
  SUMMARY FOR CONTACT PAIR IDENTIFIED BY REAL CONSTANT SET          78
 Min.  Gap of 5.192000573E-08 has been detected between contact element  
 139311 and target element 139426.                                       
 Max.  Pinball distance 5.237339194E-08.                                 
 One of the contact searching regions contains at least 4 target         
 elements.                                                               
 *************************************************
  
 *************************************************
  SUMMARY FOR CONTACT PAIR IDENTIFIED BY REAL CONSTANT SET          80
 Min.  Gap of 5.115551376E-08 has been detected between contact element  
 139508 and target element 139632.                                       
 Max.  Pinball distance 5.266317808E-08.                                 
 One of the contact searching regions contains at least 4 target         
 elements.                                                               
 *************************************************
  
 *************************************************
  SUMMARY FOR CONTACT PAIR IDENTIFIED BY REAL CONSTANT SET          82
 Min.  Gap of 5.115551376E-08 has been detected between contact element  
 139688 and target element 139826.                                       
 Max.  Pinball distance 5.359039845E-08.                                 
 One of the contact searching regions contains at least 4 target         
 elements.                                                               
 *************************************************



            **** CENTER OF MASS, MASS, AND MASS MOMENTS OF INERTIA ****

  CALCULATIONS ASSUME ELEMENT MASS AT ELEMENT CENTROID

  TOTAL MASS =  0.24952E-13

                           MOM. OF INERTIA         MOM. OF INERTIA
  CENTER OF MASS            ABOUT ORIGIN        ABOUT CENTER OF MASS

  XC = -0.52958E-09      IXX =   0.5839E-25      IXX =   0.5834E-25
  YC =  0.31552E-09      IYY =   0.5840E-25      IYY =   0.5834E-25
  ZC = -0.45712E-07      IZZ =   0.1159E-24      IZZ =   0.1159E-24
                         IXY =   0.1681E-28      IXY =   0.1681E-28
                         IYZ =  -0.1744E-29      IYZ =  -0.2104E-29
                         IZX =   0.2101E-29      IZX =   0.2705E-29


  *** MASS SUMMARY BY ELEMENT TYPE ***

  TYPE      MASS
     1  0.756605E-14
     2  0.703841E-16
     3  0.703841E-16
     4  0.703841E-16
     5  0.703841E-16
     6  0.712606E-16
     7  0.712464E-16
     8  0.712305E-16
     9  0.712376E-16
    10  0.660160E-16
    11  0.660160E-16
    12  0.660160E-16
    13  0.660160E-16
    14  0.251503E-14
    15  0.140400E-13

   *** ELEMENT MATRIX FORMULATION TIMES
     TYPE    NUMBER   ENAME      TOTAL CP  AVE CP

        1      2451  SOLID187      0.594   0.000242
        2       182  SOLID187      0.016   0.000086
        3       182  SOLID187      0.047   0.000258
        4       182  SOLID187      0.016   0.000086
        5       182  SOLID187      0.000   0.000000
        6       174  SOLID187      0.125   0.000718
        7       165  SOLID187      0.062   0.000379
        8       171  SOLID187      0.016   0.000091
        9       164  SOLID187      0.016   0.000095
       10        72  SOLID186      0.000   0.000000
       11        72  SOLID186      0.000   0.000000
       12        72  SOLID186      0.016   0.000217
       13        72  SOLID186      0.000   0.000000
       14      3001  SOLID187      0.469   0.000156
       15       169  SOLID186      0.016   0.000092
       16      1714  CONTA174      0.297   0.000173
       17      1714  TARGE170      0.031   0.000018
       18        70  CONTA174      0.016   0.000223
       19        70  TARGE170      0.000   0.000000
       20        79  CONTA174      0.000   0.000000
       21        79  TARGE170      0.000   0.000000
       22        70  CONTA174      0.062   0.000893
       23        70  TARGE170      0.000   0.000000
       24        79  CONTA174      0.031   0.000396
       25        79  TARGE170      0.000   0.000000
       26        94  CONTA174      0.000   0.000000
       27        94  TARGE170      0.000   0.000000
       28        92  CONTA174      0.000   0.000000
       29        92  TARGE170      0.000   0.000000
       30        99  CONTA174      0.031   0.000316
       31        99  TARGE170      0.000   0.000000
       32        92  CONTA174      0.000   0.000000
       33        92  TARGE170      0.000   0.000000
       34        55  CONTA174      0.000   0.000000
       35        55  TARGE170      0.000   0.000000
       36        40  CONTA174      0.000   0.000000
       37        40  TARGE170      0.000   0.000000
       38        55  CONTA174      0.000   0.000000
       39        55  TARGE170      0.062   0.001136
       40        40  CONTA174      0.031   0.000781
       41        40  TARGE170      0.031   0.000781
       42        55  CONTA174      0.000   0.000000
       43        55  TARGE170      0.000   0.000000
       44        40  CONTA174      0.000   0.000000
       45        40  TARGE170      0.000   0.000000
       46        55  CONTA174      0.031   0.000568
       47        55  TARGE170      0.000   0.000000
       48        40  CONTA174      0.000   0.000000
       49        40  TARGE170      0.000   0.000000
       50       976  CONTA174      0.156   0.000160
       51       169  TARGE170      0.000   0.000000
       52        26  CONTA174      0.031   0.001202
       53       169  TARGE170      0.031   0.000185
       54        26  CONTA174      0.000   0.000000
       55       169  TARGE170      0.000   0.000000
       56        23  CONTA174      0.000   0.000000
       57       169  TARGE170      0.000   0.000000
       58        23  CONTA174      0.000   0.000000
       59       169  TARGE170      0.016   0.000092
       60        26  CONTA174      0.000   0.000000
       61       169  TARGE170      0.000   0.000000
       62        26  CONTA174      0.000   0.000000
       63       169  TARGE170      0.000   0.000000
       64        23  CONTA174      0.000   0.000000
       65       169  TARGE170      0.000   0.000000
       66        23  CONTA174      0.000   0.000000
       67       169  TARGE170      0.000   0.000000
       68        26  CONTA174      0.000   0.000000
       69       169  TARGE170      0.016   0.000092
       70        26  CONTA174      0.000   0.000000
       71       169  TARGE170      0.000   0.000000
       72        23  CONTA174      0.000   0.000000
       73       169  TARGE170      0.000   0.000000
       74        23  CONTA174      0.000   0.000000
       75       169  TARGE170      0.000   0.000000
       76        26  CONTA174      0.000   0.000000
       77       169  TARGE170      0.000   0.000000
       78        26  CONTA174      0.000   0.000000
       79       169  TARGE170      0.000   0.000000
       80        23  CONTA174      0.000   0.000000
       81       169  TARGE170      0.000   0.000000
       82        23  CONTA174      0.000   0.000000
       83       169  TARGE170      0.000   0.000000
 Time at end of element matrix formulation CP = 3.609375.                

   *** ELEMENT RESULT CALCULATION TIMES
     TYPE    NUMBER   ENAME      TOTAL CP  AVE CP

       16      1714  CONTA174      0.250   0.000146
       18        70  CONTA174      0.000   0.000000
       20        79  CONTA174      0.000   0.000000
       22        70  CONTA174      0.016   0.000223
       24        79  CONTA174      0.016   0.000198
       26        94  CONTA174      0.016   0.000166
       28        92  CONTA174      0.000   0.000000
       30        99  CONTA174      0.000   0.000000
       32        92  CONTA174      0.000   0.000000
       34        55  CONTA174      0.016   0.000284
       36        40  CONTA174      0.000   0.000000
       38        55  CONTA174      0.031   0.000568
       40        40  CONTA174      0.000   0.000000
       42        55  CONTA174      0.000   0.000000
       44        40  CONTA174      0.000   0.000000
       46        55  CONTA174      0.016   0.000284
       48        40  CONTA174      0.000   0.000000
       50       976  CONTA174      0.125   0.000128
       52        26  CONTA174      0.000   0.000000
       54        26  CONTA174      0.000   0.000000
       56        23  CONTA174      0.000   0.000000
       58        23  CONTA174      0.000   0.000000
       60        26  CONTA174      0.000   0.000000
       62        26  CONTA174      0.000   0.000000
       64        23  CONTA174      0.000   0.000000
       66        23  CONTA174      0.000   0.000000
       68        26  CONTA174      0.000   0.000000
       70        26  CONTA174      0.000   0.000000
       72        23  CONTA174      0.000   0.000000
       74        23  CONTA174      0.000   0.000000
       76        26  CONTA174      0.000   0.000000
       78        26  CONTA174      0.000   0.000000
       80        23  CONTA174      0.000   0.000000
       82        23  CONTA174      0.000   0.000000

   *** NODAL LOAD CALCULATION TIMES
     TYPE    NUMBER   ENAME      TOTAL CP  AVE CP

       16      1714  CONTA174      0.078   0.000046
       18        70  CONTA174      0.000   0.000000
       20        79  CONTA174      0.000   0.000000
       22        70  CONTA174      0.000   0.000000
       24        79  CONTA174      0.000   0.000000
       26        94  CONTA174      0.000   0.000000
       28        92  CONTA174      0.000   0.000000
       30        99  CONTA174      0.000   0.000000
       32        92  CONTA174      0.000   0.000000
       34        55  CONTA174      0.016   0.000284
       36        40  CONTA174      0.000   0.000000
       38        55  CONTA174      0.000   0.000000
       40        40  CONTA174      0.000   0.000000
       42        55  CONTA174      0.000   0.000000
       44        40  CONTA174      0.000   0.000000
       46        55  CONTA174      0.000   0.000000
       48        40  CONTA174      0.000   0.000000
       50       976  CONTA174      0.000   0.000000
       52        26  CONTA174      0.000   0.000000
       54        26  CONTA174      0.000   0.000000
       56        23  CONTA174      0.000   0.000000
       58        23  CONTA174      0.000   0.000000
       60        26  CONTA174      0.000   0.000000
       62        26  CONTA174      0.000   0.000000
       64        23  CONTA174      0.000   0.000000
       66        23  CONTA174      0.000   0.000000
       68        26  CONTA174      0.000   0.000000
       70        26  CONTA174      0.000   0.000000
       72        23  CONTA174      0.000   0.000000
       74        23  CONTA174      0.000   0.000000
       76        26  CONTA174      0.000   0.000000
       78        26  CONTA174      0.000   0.000000
       80        23  CONTA174      0.000   0.000000
       82        23  CONTA174      0.000   0.000000

 FINISH SOLUTION PROCESSING


 ***** ROUTINE COMPLETED *****  CP =         4.125



 *GET  _WALLASOL  FROM  ACTI  ITEM=TIME WALL  VALUE=  20.7163889    

 PRINTOUT RESUMED BY /GOP

 *GET  _WALLDONE  FROM  ACTI  ITEM=TIME WALL  VALUE=  20.7163889    

 PARAMETER _PREPTIME =     1.000000000    

 PARAMETER _SOLVTIME =     3.000000000    

 PARAMETER _POSTTIME =     0.000000000    

 PARAMETER _TOTALTIM =     4.000000000    

 *GET  _DLBRATIO  FROM  ACTI  ITEM=SOLU DLBR  VALUE=  0.00000000    

 *GET  _COMBTIME  FROM  ACTI  ITEM=SOLU COMB  VALUE=  0.00000000    
 --- Number of total nodes = 20124
 --- Number of total elements = 17468
 --- Element load balance ratio = 0
 --- Time to combine distributed files = 0

 EXIT ANSYS WITHOUT SAVING DATABASE


 NUMBER OF WARNING MESSAGES ENCOUNTERED=          3
 NUMBER OF ERROR   MESSAGES ENCOUNTERED=          0

+--------- D I S T R I B U T E D   A N S Y S   S T A T I S T I C S ------------+

Release: 2020 R1            Build: 20.1       Update: UP20191203   Platform: WINDOWS x64 
Date Run: 04/16/2020   Time: 20:42     Process ID: 7568
Operating System: Windows 10  (Build: 18363)

Processor Model: Intel(R) Core(TM) i5-6360U CPU @ 2.00GHz

Compiler: Intel(R) FORTRAN Compiler Version 19.0.0  (Build: 20190206)
          Intel(R) C/C++ Compiler Version 19.0.0  (Build: 20190206)
          Intel(R) Math Kernel Library Version 2019.0.3 Product Build 20190125

Number of machines requested            :    1
Total number of cores available         :    2
Number of physical cores available      :    2
Number of processes requested           :    2
Number of threads per process requested :    1
Total number of cores requested         :    2 (Distributed Memory Parallel)               
MPI Type: INTELMPI
MPI Version: Intel(R) MPI Library 2018 Update 3 for Windows* OS


GPU Acceleration: Not Requested

Job Name: file0
Input File: dummy.dat

  Core                Machine Name   Working Directory
 -----------------------------------------------------
     0             DESKTOP-H2RNGL6   C:\Users\Akash Levy\Documents\NEM-Relay-CAD\ansys\_ProjectScratch\Scr45B6
     1             DESKTOP-H2RNGL6   C:\Users\Akash Levy\Documents\NEM-Relay-CAD\ansys\_ProjectScratch\Scr45B6
 
Latency time from master to core     1 =   10.768 microseconds
 
Communication speed from master to core     1 =  1117.01 MB/sec

Total CPU time for main thread                    :        3.3 seconds
Total CPU time summed for all threads             :        4.2 seconds

Elapsed time spent obtaining a license            :        1.3 seconds
Elapsed time spent pre-processing model (/PREP7)  :        0.4 seconds
Elapsed time spent solution - preprocessing       :        0.3 seconds
Elapsed time spent computing solution             :        0.0 seconds
Elapsed time spent solution - postprocessing      :        0.0 seconds
Elapsed time spent post-processing model (/POST1) :        0.0 seconds
 
Equation solver used                              :            Sparse (symmetric)

Maximum total memory used                         :       68.0 MB
Maximum total memory allocated                    :     3136.0 MB
Total physical memory available                   :          4 GB

Total amount of I/O written to disk               :        0.1 GB
Total amount of I/O read from disk                :        0.0 GB

+------ E N D   D I S T R I B U T E D   A N S Y S   S T A T I S T I C S -------+


 *---------------------------------------------------------------------------*
 |                                                                           |
 |                       DISTRIBUTED ANSYS RUN COMPLETED                     |
 |                                                                           |
 |---------------------------------------------------------------------------|
 |                                                                           |
 | Ansys 2020 R1               Build 20.1         UP20191203     WINDOWS x64 |
 |                                                                           |
 |---------------------------------------------------------------------------|
 |                                                                           |
 | Database Requested(-db)  1024 MB    Scratch Memory Requested      1024 MB |
 | Maximum Database Used      24 MB    Maximum Scratch Memory Used     39 MB |
 |                                                                           |
 |---------------------------------------------------------------------------|
 |                                                                           |
 |        CP Time      (sec) =          4.172       Time  =  20:42:59        |
 |        Elapsed Time (sec) =          7.000       Date  =  04/16/2020      |
 |                                                                           |
 *---------------------------------------------------------------------------*
