
Build Time: Dec  2 2019 14:15:02 EST 
Executable Path: C:/PROGRA~1/ANSYSI~1/v201/fluent/ntbin/win64/fluent.exe

-------------------------------------------------------------------------------
ID    Hostname         Core  O.S.         PID   Vendor                     
-------------------------------------------------------------------------------
n0*   DESKTOP-H2RNGL6  1/2  Windows-x64  8808  Intel(R) Core(TM) i5-6360U 
host  DESKTOP-H2RNGL6       Windows-x64  2316  Intel(R) Core(TM) i5-6360U 

MPI Option Selected: ibmmpi
Selected system interconnect: default
-------------------------------------------------------------------------------
Writing "| gzip -2cf > FFF-1.2-6-00000.cas.gz"...
Writing temporary file C:\\Users\\AKASHL~1\\AppData\\Local\\Temp\\flntgz-23165 ...
  166992 tetrahedral cells, zone  2, binary.
  324261 triangular interior faces, zone  1, binary.
   11258 triangular wall faces, zone  5, binary.
    8188 triangular wall faces, zone  6, binary.
   32742 nodes, binary.
   32742 node flags, binary.
Done.

Writing "| gzip -2cf > FFF-1.2-6-00000.dat.gz"...
Writing temporary file C:\\Users\\AKASHL~1\\AppData\\Local\\Temp\\flntgz-23166 ...
Done.


NOTE: System Coupling analysis settings will override Fluent calculation settings

Exchanging Data... done.

COUPLING STEP = 1	 COUPLING ITERATION = 1

Updating solution at time level N...
 done.

Updating mesh at time level N... done.

  iter  continuity  x-velocity  y-velocity  z-velocity           k       omega     time/iter
     1  0.0000e+00  0.0000e+00  0.0000e+00  0.0000e+00  3.0720e-06  1.5585e+10  0:00:57   19
     2  0.0000e+00  0.0000e+00  0.0000e+00  0.0000e+00  2.5458e-04  1.8205e-01  0:00:54   18
     3  0.0000e+00  0.0000e+00  0.0000e+00  0.0000e+00  9.0491e-05  7.0348e-02  0:00:48   17
     4  0.0000e+00  0.0000e+00  0.0000e+00  0.0000e+00  3.9208e-05  2.0837e-02  0:00:39   16
     5  0.0000e+00  0.0000e+00  0.0000e+00  0.0000e+00  0.0000e+00  5.7426e-03  0:00:35   15
     6  1.5327e-14  5.1776e-02  5.2087e-02  8.8568e-02  1.3936e-05  1.7557e-03  0:00:29   14
     7  1.0062e-14  4.2314e-02  4.1636e-02  7.0018e-02  1.1270e-05  6.8388e-04  0:00:24   13
     8  6.4004e-15  3.8888e-02  3.8938e-02  6.9615e-02  1.0863e-05  3.5286e-04  0:00:23   12
     9  4.3261e-15  3.8990e-02  3.8728e-02  6.9246e-02  1.2322e-05  2.2335e-04  0:00:19   11
    10  2.8771e-15  4.1966e-02  4.2333e-02  7.6931e-02  1.6378e-05  1.5834e-04  0:00:16   10
    11  1.9716e-15  4.7006e-02  4.7597e-02  8.7556e-02  2.4537e-05  1.1897e-04  0:00:15    9

  iter  continuity  x-velocity  y-velocity  z-velocity           k       omega     time/iter
    12  1.3300e-15  5.8760e-02  5.9718e-02  1.1119e-01  4.2084e-05  9.2317e-05  0:00:12    8
    13  9.1008e-16  6.9855e-02  6.9470e-02  1.3240e-01  7.7436e-05  7.3127e-05  0:00:11    7
    14  6.1731e-16  8.1184e-02  7.9856e-02  1.5464e-01  1.3595e-04  5.8784e-05  0:00:09    6
    15  4.1766e-16  8.3473e-02  8.3452e-02  1.6465e-01  1.9045e-04  4.7804e-05  0:00:07    5
    16  2.8048e-16  8.6968e-02  8.5060e-02  1.6992e-01  2.0326e-04  3.9243e-05  0:00:06    4
    17  1.8996e-16  8.4609e-02  8.5213e-02  1.6888e-01  1.8688e-04  3.2473e-05  0:00:04    3
    18  1.3000e-16  8.4083e-02  8.2013e-02  1.6885e-01  1.6392e-04  2.7042e-05  0:00:03    2
    19  9.2343e-17  8.0270e-02  7.8436e-02  1.6381e-01  1.4266e-04  2.2648e-05  0:00:01    1
    20  6.6791e-17  8.3777e-02  7.9577e-02  1.6630e-01  1.2763e-04  1.9062e-05  0:00:00    0
Flow time = 9.999999717180685e-10s, time step = 1

Exchanging Data... done.

COUPLING STEP = 1	 COUPLING ITERATION = 2

  iter  continuity  x-velocity  y-velocity  z-velocity           k       omega     time/iter
    20  6.6791e-17  8.3777e-02  7.9577e-02  1.6630e-01  1.2763e-04  1.9062e-05  0:00:31   20

Updating mesh at iteration... done.
    21  4.9143e-17  8.5261e-02  8.1200e-02  1.6615e-01  1.1448e-04  1.6113e-05  0:00:35   19
    22  3.5665e-17  9.1695e-02  8.5280e-02  1.7884e-01  1.0289e-04  1.3668e-05  0:00:34   18
    23  2.7137e-17  9.7163e-02  8.8315e-02  1.8277e-01  9.2637e-05  1.1632e-05  0:00:29   17
    24  2.0799e-17  1.0448e-01  9.2559e-02  1.8601e-01  8.3500e-05  9.9277e-06  0:00:25   16
    25  1.6320e-17  1.0587e-01  9.5776e-02  1.6310e-01  7.5327e-05  8.4964e-06  0:00:25   15
    26  1.2345e-17  1.1354e-01  1.0219e-01  1.6168e-01  6.7992e-05  7.2876e-06  0:00:35   14
    27  9.9566e-18  1.1784e-01  1.0292e-01  1.4377e-01  6.1397e-05  6.2611e-06  0:00:31   13
    28  7.9951e-18  1.2705e-01  1.0948e-01  1.4756e-01  5.5449e-05  5.3915e-06  0:00:30   12
    29  7.0587e-18  1.3950e-01  1.1725e-01  1.4732e-01  5.0075e-05  4.6499e-06  0:00:29   11
    30  6.6971e-18  1.5838e-01  1.3389e-01  1.5117e-01  4.5217e-05  4.0165e-06  0:00:25   10

  iter  continuity  x-velocity  y-velocity  z-velocity           k       omega     time/iter
    31  6.8086e-18  1.8021e-01  1.5127e-01  1.6002e-01  4.0825e-05  3.4756e-06  0:00:22    9
    32  7.0126e-18  2.0947e-01  1.7519e-01  1.7752e-01  3.6852e-05  3.0111e-06  0:00:19    8
    33  7.4201e-18  2.3335e-01  1.9562e-01  1.8949e-01  3.3257e-05  2.6113e-06  0:00:16    7
    34  7.9852e-18  2.6413e-01  2.2064e-01  2.0632e-01  3.0007e-05  2.2685e-06  0:00:13    6
    35  8.6897e-18  2.8731e-01  2.3966e-01  2.1715e-01  2.7062e-05  1.9729e-06  0:00:11    5
    36  9.6072e-18  3.1705e-01  2.6459e-01  2.3355e-01  2.4398e-05  1.7172e-06  0:00:09    4
    37  1.0689e-17  3.3429e-01  2.7943e-01  2.3975e-01  2.1989e-05  1.4973e-06  0:00:06    3
    38  1.1873e-17  3.6037e-01  3.0131e-01  2.5493e-01  1.9811e-05  1.3075e-06  0:00:04    2
    39  1.3165e-17  3.7627e-01  3.1427e-01  2.6203e-01  1.7842e-05  1.1426e-06  0:00:02    1
    40  1.4800e-17  3.9956e-01  3.3367e-01  2.7597e-01  1.6064e-05  9.9998e-07  0:00:00    0
Flow time = 9.9999997e-10s, time step = 1

Exchanging Data... done.

COUPLING STEP = 1	 COUPLING ITERATION = 3

  iter  continuity  x-velocity  y-velocity  z-velocity           k       omega     time/iter
    40  1.4800e-17  3.9956e-01  3.3367e-01  2.7597e-01  1.6064e-05  9.9998e-07  0:00:39   20

Updating mesh at iteration... done.
    41  1.6686e-17  4.1160e-01  3.4348e-01  2.8243e-01  1.4462e-05  8.7594e-07  0:00:41   19
    42  1.8824e-17  4.3382e-01  3.6199e-01  2.9607e-01  1.3012e-05  7.6843e-07  0:00:38   18
    43  2.1241e-17  4.4212e-01  3.6880e-01  3.0007e-01  1.1703e-05  6.7620e-07  0:00:32   17
    44  2.4238e-17  4.5084e-01  3.7605e-01  3.0408e-01  1.0522e-05  5.9531e-07  0:00:31   16
    45  2.7282e-17  4.6315e-01  3.8656e-01  3.1141e-01  9.4576e-06  5.2503e-07  0:00:29   15
    46  3.0585e-17  4.7869e-01  3.9951e-01  3.2096e-01  8.4980e-06  4.6297e-07  0:00:27   14
    47  3.4280e-17  4.8081e-01  4.0125e-01  3.2108e-01  7.6374e-06  4.1129e-07  0:00:23   13
    48  3.8325e-17  4.9833e-01  4.1590e-01  3.3205e-01  6.8588e-06  3.6458e-07  0:00:22   12
    49  4.2644e-17  5.0003e-01  4.1730e-01  3.3303e-01  6.1575e-06  3.2463e-07  0:00:20   11
    50  4.7526e-17  5.1258e-01  4.2792e-01  3.4131e-01  5.5268e-06  2.8995e-07  0:00:21   10

  iter  continuity  x-velocity  y-velocity  z-velocity           k       omega     time/iter
    51  5.2919e-17  5.1209e-01  4.2762e-01  3.4098e-01  4.9593e-06  2.5988e-07  0:00:19    9
    52  5.8973e-17  5.2453e-01  4.3803e-01  3.4927e-01  4.4493e-06  2.3343e-07  0:00:16    8
    53  6.5708e-17  5.2287e-01  4.3659e-01  3.4811e-01  3.9908e-06  2.0918e-07  0:00:14    7
    54  7.3207e-17  5.3396e-01  4.4588e-01  3.5557e-01  3.5798e-06  1.8976e-07  0:00:11    6
    55  8.1592e-17  5.3142e-01  4.4388e-01  3.5380e-01  3.2096e-06  1.7176e-07  0:00:08    5
    56  9.0949e-17  5.4124e-01  4.5215e-01  3.6046e-01  2.8774e-06  1.5707e-07  0:00:07    4
    57  1.0127e-16  5.3879e-01  4.5020e-01  3.5892e-01  2.5792e-06  1.4342e-07  0:00:05    3
    58  1.1283e-16  5.4700e-01  4.5714e-01  3.6452e-01  2.3115e-06  1.3119e-07  0:00:03    2
    59  1.2567e-16  5.4413e-01  4.5468e-01  3.6269e-01  2.0714e-06  1.2162e-07  0:00:02    1
    60  1.3998e-16  5.5138e-01  4.6081e-01  3.6770e-01  1.8565e-06  1.1341e-07  0:00:00    0
Flow time = 9.9999997e-10s, time step = 1

Exchanging Data... done.

COUPLING STEP = 1	 COUPLING ITERATION = 4

  iter  continuity  x-velocity  y-velocity  z-velocity           k       omega     time/iter
    60  1.3998e-16  5.5138e-01  4.6081e-01  3.6770e-01  1.8565e-06  1.1341e-07  0:00:33   20

Updating mesh at iteration... done.
    61  1.5591e-16  5.4794e-01  4.5799e-01  3.6546e-01  1.6636e-06  1.0479e-07  0:00:36   19
    62  1.7357e-16  5.5303e-01  4.6226e-01  3.6897e-01  1.4908e-06  9.8239e-08  0:00:35   18
    63  1.9330e-16  5.5073e-01  4.6040e-01  3.6756e-01  1.3357e-06  9.3467e-08  0:00:30   17
    64  2.1522e-16  5.5487e-01  4.6406e-01  3.7056e-01  1.1971e-06  8.7896e-08  0:00:32   16
    65  2.3953e-16  5.5183e-01  4.6166e-01  3.6860e-01  1.0728e-06  8.2920e-08  0:00:30   15
    66  2.6664e-16  5.5555e-01  4.6486e-01  3.7118e-01  9.6169e-07  7.9455e-08  0:00:25   14
    67  2.9777e-16  5.3961e-01  4.5225e-01  3.6085e-01  8.6226e-07  7.6208e-08  0:00:24   13
    68  3.3148e-16  5.4993e-01  4.6109e-01  3.6787e-01  7.7310e-07  7.3325e-08  0:00:20   12
    69  3.6871e-16  5.4389e-01  4.5615e-01  3.6379e-01  6.9351e-07  7.1205e-08  0:00:17   11
    70  4.1017e-16  5.4309e-01  4.5564e-01  3.6336e-01  6.2236e-07  6.8315e-08  0:00:16   10

  iter  continuity  x-velocity  y-velocity  z-velocity           k       omega     time/iter
    71  4.5645e-16  5.4139e-01  4.5426e-01  3.6236e-01  5.5856e-07  6.6685e-08  0:00:14    9
    72  5.0790e-16  5.4503e-01  4.5738e-01  3.6499e-01  5.0170e-07  6.4755e-08  0:00:13    8
    73  5.6480e-16  5.4266e-01  4.5538e-01  3.6351e-01  4.5076e-07  6.2830e-08  0:00:10    7
    74  6.2875e-16  5.5200e-01  4.6268e-01  3.6971e-01  4.0542e-07  6.1454e-08  0:00:10    6
    75  6.9807e-16  5.5136e-01  4.6238e-01  3.6935e-01  3.6489e-07  6.0229e-08  0:00:08    5
    76  7.7847e-16  5.4791e-01  4.5963e-01  3.6754e-01  3.2860e-07  6.0148e-08  0:00:06    4
    77  8.6553e-16  5.4853e-01  4.6038e-01  3.6830e-01  2.9631e-07  5.9007e-08  0:00:05    3
    78  9.6249e-16  5.4913e-01  4.6079e-01  3.6875e-01  2.6744e-07  5.9359e-08  0:00:03    2
    79  1.0710e-15  5.3055e-01  4.4534e-01  3.5617e-01  2.4166e-07  5.8108e-08  0:00:01    1
    80  1.1935e-15  5.3638e-01  4.5030e-01  3.6042e-01  2.1871e-07  5.8611e-08  0:00:00    0
Flow time = 9.9999997e-10s, time step = 1

Exchanging Data... done.

COUPLING STEP = 1	 COUPLING ITERATION = 5

  iter  continuity  x-velocity  y-velocity  z-velocity           k       omega     time/iter
    80  1.1935e-15  5.3638e-01  4.5030e-01  3.6042e-01  2.1871e-07  5.8611e-08  0:00:30   20

Updating mesh at iteration... done.
    81  1.3247e-15  5.3729e-01  4.5112e-01  3.6109e-01  1.9812e-07  5.8458e-08  0:00:31   19
    82  1.4714e-15  5.2744e-01  4.4240e-01  3.5420e-01  1.7993e-07  5.8054e-08  0:00:30   18
    83  1.6393e-15  5.3320e-01  4.4742e-01  3.5836e-01  1.6351e-07  5.7668e-08  0:00:30   17
    84  1.8219e-15  5.3267e-01  4.4709e-01  3.5812e-01  1.4902e-07  5.7128e-08  0:00:26   16
    85  2.0262e-15  5.3092e-01  4.4558e-01  3.5722e-01  1.3599e-07  5.6630e-08  0:00:22   15
    86  2.2546e-15  5.3045e-01  4.4522e-01  3.5696e-01  1.2444e-07  5.7968e-08  0:00:22   14
    87  2.4926e-15  5.5362e-01  4.6476e-01  3.7305e-01  1.1410e-07  5.7844e-08  0:00:19   13
    88  2.7786e-15  5.3165e-01  4.4640e-01  3.5782e-01  1.0511e-07  5.7839e-08  0:00:19   12
    89  3.0858e-15  5.4613e-01  4.5861e-01  3.6813e-01  9.6928e-08  5.8080e-08  0:00:16   11
    90  3.4334e-15  5.5490e-01  4.6643e-01  3.7489e-01  8.9537e-08  5.8576e-08  0:00:14   10

  iter  continuity  x-velocity  y-velocity  z-velocity           k       omega     time/iter
    91  3.8074e-15  5.6049e-01  4.7101e-01  3.7847e-01  8.3084e-08  5.9681e-08  0:00:13    9
    92  4.2329e-15  5.5268e-01  4.6443e-01  3.7340e-01  7.7355e-08  5.9367e-08  0:00:11    8
    93  4.6994e-15  5.4322e-01  4.5648e-01  3.6657e-01  7.2261e-08  5.8974e-08  0:00:09    7
    94  5.2253e-15  5.4754e-01  4.6014e-01  3.6961e-01  6.7748e-08  5.9622e-08  0:00:09    6
    95  5.8071e-15  5.4669e-01  4.5942e-01  3.6908e-01  6.3706e-08  6.0749e-08  0:00:07    5
    96  6.4582e-15  5.4651e-01  4.5934e-01  3.6916e-01  6.0105e-08  6.1135e-08  0:00:06    4
    97  7.1785e-15  5.4663e-01  4.5945e-01  3.6933e-01  5.6927e-08  6.2866e-08  0:00:04    3
    98  8.0123e-15  5.4221e-01  4.5562e-01  3.6649e-01  5.4173e-08  6.2905e-08  0:00:03    2
    99  8.8919e-15  5.4591e-01  4.5867e-01  3.6911e-01  5.1569e-08  6.4329e-08  0:00:02    1
   100  9.8939e-15  5.4318e-01  4.5637e-01  3.6726e-01  4.9415e-08  6.6399e-08  0:00:00    0
Flow time = 9.9999997e-10s, time step = 1

Exchanging Data... done.

COUPLING STEP = 1	 COUPLING ITERATION = 6

  iter  continuity  x-velocity  y-velocity  z-velocity           k       omega     time/iter
   100  9.8939e-15  5.4318e-01  4.5637e-01  3.6726e-01  4.9415e-08  6.6399e-08  0:00:30   20

Updating mesh at iteration... done.
   101  1.1000e-14  5.4568e-01  4.5849e-01  3.6899e-01  4.7459e-08  6.6391e-08  0:00:34   19
   102  1.2227e-14  5.4484e-01  4.5778e-01  3.6854e-01  4.5722e-08  6.9266e-08  0:00:29   18
   103  1.3596e-14  5.4151e-01  4.5506e-01  3.6618e-01  4.4327e-08  7.1045e-08  0:00:29   17
   104  1.5133e-14  5.4235e-01  4.5578e-01  3.6692e-01  4.2893e-08  7.3022e-08  0:00:25   16
   105  1.6728e-14  5.4323e-01  4.5633e-01  3.6709e-01  4.1829e-08  7.3579e-08  0:00:25   15
   106  1.8663e-14  5.4461e-01  4.5753e-01  3.6868e-01  4.0830e-08  7.6710e-08  0:00:21   14
   107  2.0682e-14  5.4359e-01  4.5668e-01  3.6735e-01  4.0027e-08  7.9838e-08  0:00:21   13
   108  2.3084e-14  5.3692e-01  4.5109e-01  3.6351e-01  3.9243e-08  8.3782e-08  0:00:18   12
   109  2.5551e-14  5.4844e-01  4.6081e-01  3.7086e-01  3.8853e-08  8.5354e-08  0:00:18   11
   110  2.8388e-14  5.5326e-01  4.6485e-01  3.7408e-01  3.8192e-08  9.1361e-08  0:00:15   10

  iter  continuity  x-velocity  y-velocity  z-velocity           k       omega     time/iter
   111  3.1536e-14  5.3983e-01  4.5346e-01  3.6543e-01  3.7864e-08  9.4451e-08  0:00:12    9
   112  3.5198e-14  5.4730e-01  4.5972e-01  3.7025e-01  3.7506e-08  1.0058e-07  0:00:12    8
   113  3.8898e-14  5.6345e-01  4.7316e-01  3.8143e-01  3.7509e-08  1.0217e-07  0:00:10    7
   114  4.3208e-14  5.5245e-01  4.6363e-01  3.7322e-01  3.7201e-08  1.1089e-07  0:00:09    6
   115  4.8051e-14  5.6068e-01  4.7057e-01  3.7936e-01  3.7588e-08  1.1464e-07  0:00:07    5
   116  5.3533e-14  5.5463e-01  4.6547e-01  3.7513e-01  3.7223e-08  1.2446e-07  0:00:05    4
   117  5.9239e-14  5.7122e-01  4.7945e-01  3.8674e-01  3.7377e-08  1.2882e-07  0:00:04    3
   118  6.5918e-14  5.5245e-01  4.6349e-01  3.7355e-01  3.7406e-08  1.4046e-07  0:00:03    2
   119  7.3203e-14  5.6856e-01  4.7708e-01  3.8492e-01  3.8207e-08  1.4747e-07  0:00:01    1
   120  8.1562e-14  5.4945e-01  4.6097e-01  3.7147e-01  3.8071e-08  1.6078e-07  0:00:00    0
Flow time = 9.9999997e-10s, time step = 1

Exchanging Data... done.

COUPLING STEP = 1	 COUPLING ITERATION = 7

  iter  continuity  x-velocity  y-velocity  z-velocity           k       omega     time/iter
   120  8.1562e-14  5.4945e-01  4.6097e-01  3.7147e-01  3.8071e-08  1.6078e-07  0:00:28   20

Updating mesh at iteration... done.
   121  9.0631e-14  5.2601e-01  4.4295e-01  3.5482e-01  3.8171e-08  1.7033e-07  0:00:33   19
   122  1.0038e-13  5.6769e-01  4.7668e-01  3.8436e-01  3.9318e-08  1.8798e-07  0:00:28   18
   123  1.1285e-13  4.7615e-01  4.0076e-01  3.2059e-01  3.9631e-08  1.9704e-07  0:00:28   17
   124  1.2382e-13  5.8898e-01  4.9484e-01  3.9935e-01  3.9623e-08  2.1678e-07  0:00:24   16
   125  1.3722e-13  5.1144e-01  4.3069e-01  3.4477e-01  3.9500e-08  2.2947e-07  0:00:21   15
   126  1.5223e-13  5.7140e-01  4.7984e-01  3.8688e-01  4.1531e-08  2.5490e-07  0:00:22   14
   127  1.7009e-13  4.8710e-01  4.0988e-01  3.2760e-01  4.1782e-08  2.7089e-07  0:00:19   13
   128  1.8764e-13  5.8522e-01  4.9169e-01  3.9711e-01  4.3644e-08  3.0152e-07  0:00:19   12
   129  2.0878e-13  4.7721e-01  4.0160e-01  3.2072e-01  4.3763e-08  3.2188e-07  0:00:16   11
   130  2.3302e-13  5.4445e-01  4.5898e-01  3.6799e-01  4.2282e-08  3.6639e-07  0:00:13   10

  iter  continuity  x-velocity  y-velocity  z-velocity           k       omega     time/iter
   131  2.5402e-13  5.6469e-01  4.7425e-01  3.8218e-01  4.5861e-08  3.8930e-07  0:00:13    9
   132  2.8631e-13  4.9385e-01  4.1573e-01  3.3241e-01  4.5630e-08  4.2924e-07  0:00:11    8
   133  3.1640e-13  5.4964e-01  4.6307e-01  3.7151e-01  4.6938e-08  4.6572e-07  0:00:11    7
   134  3.5060e-13  5.2955e-01  4.4516e-01  3.5812e-01  5.2890e-08  6.4526e-07  0:00:10    6
   135  3.8257e-13  3.9103e-01  3.3181e-01  2.6123e-01  5.4062e-08  7.1962e-07  0:00:07    5
   136  4.1889e-13  4.7606e-01  4.0613e-01  3.1707e-01  5.3335e-08  7.5007e-07  0:00:06    4
   137  4.5396e-13  4.3863e-01  3.7414e-01  2.9287e-01  5.5969e-08  8.6376e-07  0:00:04    3
   138  5.1044e-13  4.5239e-01  3.8662e-01  3.0285e-01  5.5755e-08  9.0373e-07  0:00:03    2
   139  5.5481e-13  4.6090e-01  3.9358e-01  3.0757e-01  5.9198e-08  9.8126e-07  0:00:01    1
   140  6.0861e-13  4.6145e-01  3.9394e-01  3.0932e-01  6.0638e-08  1.1418e-06  0:00:00    0
Flow time = 9.9999997e-10s, time step = 1

Exchanging Data... done.

COUPLING STEP = 1	 COUPLING ITERATION = 8

  iter  continuity  x-velocity  y-velocity  z-velocity           k       omega     time/iter
   140  6.0861e-13  4.6145e-01  3.9394e-01  3.0932e-01  6.0638e-08  1.1418e-06  0:00:31   20

Updating mesh at iteration... done.
   141  6.7819e-13  4.4461e-01  3.7991e-01  2.9737e-01  6.2543e-08  9.5541e-06  0:00:35   19
   142  7.4351e-13  4.6859e-01  4.0027e-01  3.1500e-01  6.5599e-08  4.5139e-06  0:00:34   18
   143  8.1391e-13  4.4880e-01  3.8327e-01  2.9948e-01  6.8294e-08  2.5515e-06  0:00:29   17
   144  8.9989e-13  4.4547e-01  3.8102e-01  2.9985e-01  7.0143e-08  1.9434e-06  0:00:28   16
   145  9.8643e-13  4.5222e-01  3.8643e-01  3.0200e-01  7.3121e-08  1.8923e-06  0:00:27   15
   146  1.0855e-12  4.4225e-01  3.7795e-01  2.9768e-01  7.3905e-08  2.0608e-06  0:00:23   14
   147  1.1991e-12  4.5046e-01  3.8509e-01  3.0219e-01  7.8283e-08  2.1701e-06  0:00:22   13
   148  1.3060e-12  4.4962e-01  3.8420e-01  3.0204e-01  8.0641e-08  2.3864e-06  0:00:21   12
   149  1.4329e-12  4.4903e-01  3.8370e-01  3.0148e-01  8.5485e-08  2.5926e-06  0:00:18   11
   150  1.5652e-12  4.5266e-01  3.8680e-01  3.0424e-01  8.5292e-08  2.7712e-06  0:00:17   10

  iter  continuity  x-velocity  y-velocity  z-velocity           k       omega     time/iter
   151  1.6934e-12  4.6980e-01  4.0119e-01  3.1516e-01  9.4719e-08  3.0498e-06  0:00:16    9
   152  1.8592e-12  4.4192e-01  3.7762e-01  2.9734e-01  9.7326e-08  3.4255e-06  0:00:13    8
   153  2.0380e-12  4.5237e-01  3.8654e-01  3.0437e-01  1.0262e-07  3.6498e-06  0:00:12    7
   154  2.2104e-12  4.5025e-01  3.8468e-01  3.0322e-01  1.0913e-07  3.9945e-06  0:00:10    6
   155  2.4031e-12  4.5014e-01  3.8445e-01  3.0293e-01  1.1516e-07  4.2993e-06  0:00:09    5
   156  2.6091e-12  4.4987e-01  3.8430e-01  3.0332e-01  1.1918e-07  4.7490e-06  0:00:07    4
   157  2.8253e-12  4.4819e-01  3.8289e-01  3.0205e-01  1.2427e-07  5.0049e-06  0:00:06    3
   158  3.0395e-12  4.6691e-01  3.9870e-01  3.1502e-01  1.3177e-07  5.5030e-06  0:00:04    2
   159  3.2823e-12  4.4265e-01  3.7822e-01  2.9854e-01  1.3782e-07  5.8521e-06  0:00:02    1
   160  3.5369e-12  4.6690e-01  3.9879e-01  3.1582e-01  1.4159e-07  6.3499e-06  0:00:00    0
Flow time = 9.9999997e-10s, time step = 1

Exchanging Data... done.

COUPLING STEP = 1	 COUPLING ITERATION = 9

  iter  continuity  x-velocity  y-velocity  z-velocity           k       omega     time/iter
   160  3.5369e-12  4.6690e-01  3.9879e-01  3.1582e-01  1.4159e-07  6.3499e-06  0:00:39   20

Updating mesh at iteration... done.
   161  3.7804e-12  4.5780e-01  3.9112e-01  3.0931e-01  1.5135e-07  6.9454e-06  0:00:41   19
   162  4.0616e-12  4.6155e-01  3.9407e-01  3.1242e-01  1.5502e-07  7.3337e-06  0:00:38   18
   163  4.3359e-12  4.5982e-01  3.9286e-01  3.1118e-01  1.6787e-07  7.6588e-06  0:00:32   17
   164  4.6386e-12  4.5920e-01  3.9210e-01  3.1133e-01  1.7020e-07  8.2581e-06  0:00:31   16
   165  4.9267e-12  4.6077e-01  3.9383e-01  3.1231e-01  1.8303e-07  8.6952e-06  0:00:26   15
   166  5.2458e-12  4.5716e-01  3.9048e-01  3.1068e-01  1.8602e-07  9.1933e-06  0:00:25   14
   167  5.5326e-12  4.6448e-01  3.9722e-01  3.1472e-01  1.9948e-07  9.6329e-06  0:00:24   13
   168  5.8563e-12  4.5487e-01  3.8860e-01  3.0971e-01  2.1211e-07  1.0545e-05  0:00:20   12
   169  6.2322e-12  4.3983e-01  3.7626e-01  2.9863e-01  2.1674e-07  1.0597e-05  0:00:19   11
   170  6.4926e-12  4.6974e-01  4.0154e-01  3.1979e-01  2.1800e-07  1.1093e-05  0:00:18   10

  iter  continuity  x-velocity  y-velocity  z-velocity           k       omega     time/iter
   171  6.7724e-12  4.5510e-01  3.8858e-01  3.0874e-01  2.3170e-07  1.1483e-05  0:00:15    9
   172  7.1053e-12  4.6241e-01  3.9537e-01  3.1536e-01  2.3441e-07  1.2099e-05  0:00:14    8
   173  7.3844e-12  4.5919e-01  3.9172e-01  3.1151e-01  2.4863e-07  1.2378e-05  0:00:12    7
   174  7.6927e-12  4.6019e-01  3.9334e-01  3.1432e-01  2.4786e-07  1.2979e-05  0:00:10    6
   175  7.9616e-12  4.6195e-01  3.9365e-01  3.1333e-01  2.6337e-07  1.3287e-05  0:00:08    5
   176  8.2525e-12  4.5873e-01  3.9218e-01  3.1396e-01  2.6365e-07  1.4028e-05  0:00:06    4
   177  8.5302e-12  4.6046e-01  3.9211e-01  3.1267e-01  2.7919e-07  1.4400e-05  0:00:05    3
   178  8.8068e-12  4.5642e-01  3.9037e-01  3.1333e-01  2.7767e-07  1.4958e-05  0:00:03    2
   179  9.0456e-12  4.6285e-01  3.9423e-01  3.1448e-01  2.9108e-07  1.5077e-05  0:00:02    1
   180  9.2762e-12  4.5733e-01  3.9126e-01  3.1432e-01  2.8908e-07  1.5669e-05  0:00:00    0
Flow time = 9.9999997e-10s, time step = 1

Exchanging Data... done.

COUPLING STEP = 1	 COUPLING ITERATION = 10

  iter  continuity  x-velocity  y-velocity  z-velocity           k       omega     time/iter
   180  9.2762e-12  4.5733e-01  3.9126e-01  3.1432e-01  2.8908e-07  1.5669e-05  0:00:33   20

Updating mesh at iteration... done.
   181  9.5077e-12  4.6243e-01  3.9409e-01  3.1434e-01  3.0277e-07  1.5981e-05  0:00:37   19
   182  9.7177e-12  4.5552e-01  3.8982e-01  3.1336e-01  2.9975e-07  1.6370e-05  0:00:31   18
   183  9.9232e-12  4.6270e-01  3.9449e-01  3.1459e-01  3.1245e-07  1.6456e-05  0:00:30   17
   184  1.0104e-11  4.5485e-01  3.8938e-01  3.1334e-01  3.0847e-07  1.6932e-05  0:00:29   16
   185  1.0287e-11  4.6299e-01  3.9499e-01  3.1492e-01  3.2257e-07  1.7026e-05  0:00:25   15
   186  1.0432e-11  4.5465e-01  3.8938e-01  3.1369e-01  3.1822e-07  1.7461e-05  0:00:24   14
   187  1.0599e-11  4.6264e-01  3.9492e-01  3.1479e-01  3.2814e-07  1.7701e-05  0:00:23   13
   188  1.0723e-11  4.5568e-01  3.9026e-01  3.1520e-01  3.4004e-07  1.8560e-05  0:00:20   12
   189  1.1003e-11  4.3743e-01  3.7392e-01  2.9822e-01  3.3489e-07  1.8115e-05  0:00:19   11
   190  1.0970e-11  4.7260e-01  4.0488e-01  3.2662e-01  3.2834e-07  1.7860e-05  0:00:18   10

  iter  continuity  x-velocity  y-velocity  z-velocity           k       omega     time/iter
   191  1.1049e-11  4.5514e-01  3.8858e-01  3.0958e-01  3.3975e-07  1.8218e-05  0:00:14    9
   192  1.1165e-11  4.6056e-01  3.9464e-01  3.1876e-01  3.5133e-07  1.9193e-05  0:00:14    8
   193  1.1414e-11  4.3456e-01  3.7164e-01  2.9639e-01  3.4548e-07  1.8775e-05  0:00:12    7
   194  1.1354e-11  4.7420e-01  4.0642e-01  3.2822e-01  3.3734e-07  1.8316e-05  0:00:10    6
   195  1.1393e-11  4.5502e-01  3.8866e-01  3.0948e-01  3.5208e-07  1.8965e-05  0:00:08    5
   196  1.1526e-11  4.5805e-01  3.9270e-01  3.1782e-01  3.5864e-07  1.9839e-05  0:00:07    4
   197  1.1724e-11  4.3504e-01  3.7229e-01  2.9688e-01  3.5284e-07  1.9315e-05  0:00:05    3
   198  1.1644e-11  4.7243e-01  4.0507e-01  3.2756e-01  3.4497e-07  1.8970e-05  0:00:03    2
   199  1.1670e-11  4.5257e-01  3.8676e-01  3.0812e-01  3.5779e-07  1.9434e-05  0:00:02    1
   200  1.1766e-11  4.5752e-01  3.9231e-01  3.1780e-01  3.6487e-07  2.0163e-05  0:00:00    0
Flow time = 9.9999997e-10s, time step = 1

Exchanging Data... done.

COUPLING STEP = 1	 COUPLING ITERATION = 11

  iter  continuity  x-velocity  y-velocity  z-velocity           k       omega     time/iter
   200  1.1766e-11  4.5752e-01  3.9231e-01  3.1780e-01  3.6487e-07  2.0163e-05  0:00:33   20

Updating mesh at iteration... done.
   201  1.1942e-11  4.3503e-01  3.7237e-01  2.9696e-01  3.5822e-07  1.9812e-05  0:00:36   19
   202  1.1836e-11  4.7174e-01  4.0460e-01  3.2739e-01  3.4828e-07  1.9354e-05  0:00:31   18
   203  1.1848e-11  4.5311e-01  3.8735e-01  3.0864e-01  3.5698e-07  1.9151e-05  0:00:30   17
   204  1.1843e-11  4.6585e-01  3.9935e-01  3.2283e-01  3.5088e-07  1.9350e-05  0:00:29   16
   205  1.1921e-11  4.5519e-01  3.8915e-01  3.1003e-01  3.5808e-07  1.9208e-05  0:00:25   15
   206  1.1893e-11  4.6464e-01  3.9829e-01  3.2199e-01  3.5140e-07  1.9450e-05  0:00:24   14
   207  1.1970e-11  4.5623e-01  3.9008e-01  3.1079e-01  3.5901e-07  1.9313e-05  0:00:23   13
   208  1.1937e-11  4.6382e-01  3.9761e-01  3.2150e-01  3.5285e-07  1.9508e-05  0:00:22   12
   209  1.2017e-11  4.5641e-01  3.9024e-01  3.1089e-01  3.5919e-07  1.9342e-05  0:00:18   11
   210  1.1973e-11  4.6377e-01  3.9756e-01  3.2149e-01  3.5459e-07  1.9570e-05  0:00:17   10

  iter  continuity  x-velocity  y-velocity  z-velocity           k       omega     time/iter
   211  1.2057e-11  4.5607e-01  3.8997e-01  3.1067e-01  3.6003e-07  1.9408e-05  0:00:14    9
   212  1.2009e-11  4.6375e-01  3.9756e-01  3.2153e-01  3.5545e-07  1.9629e-05  0:00:13    8
   213  1.2086e-11  4.5600e-01  3.8991e-01  3.1064e-01  3.5982e-07  1.9478e-05  0:00:12    7
   214  1.2038e-11  4.6389e-01  3.9771e-01  3.2169e-01  3.5682e-07  1.9686e-05  0:00:10    6
   215  1.2115e-11  4.5581e-01  3.8975e-01  3.1053e-01  3.6046e-07  1.9523e-05  0:00:09    5
   216  1.2063e-11  4.6396e-01  3.9777e-01  3.2177e-01  3.5714e-07  1.9685e-05  0:00:08    4
   217  1.2132e-11  4.5618e-01  3.9008e-01  3.1074e-01  3.6450e-07  2.0107e-05  0:00:06    3
   218  1.2151e-11  4.5630e-01  3.9136e-01  3.1734e-01  3.7805e-07  2.0753e-05  0:00:05    2
   219  1.2326e-11  4.3526e-01  3.7269e-01  2.9716e-01  3.6431e-07  2.0155e-05  0:00:03    1
   220  1.2162e-11  4.7172e-01  4.0462e-01  3.2768e-01  3.5835e-07  1.9764e-05  0:00:00    0
Flow time = 9.9999997e-10s, time step = 1

Exchanging Data... done.

COUPLING STEP = 1	 COUPLING ITERATION = 12

  iter  continuity  x-velocity  y-velocity  z-velocity           k       omega     time/iter
   220  1.2162e-11  4.7172e-01  4.0462e-01  3.2768e-01  3.5835e-07  1.9764e-05  0:00:57   20

Updating mesh at iteration... done.
   221  1.2157e-11  4.5256e-01  3.8697e-01  3.0833e-01  3.6625e-07  2.0258e-05  0:01:02   19
   222  1.2202e-11  4.5700e-01  3.9200e-01  3.1796e-01  3.7777e-07  2.0846e-05  0:00:54   18
   223  1.2351e-11  4.3493e-01  3.7242e-01  2.9700e-01  3.6486e-07  2.0226e-05  0:00:51   17
   224  1.2191e-11  4.7229e-01  4.0516e-01  3.2815e-01  3.5881e-07  1.9795e-05  0:00:45   16
   225  1.2183e-11  4.5229e-01  3.8675e-01  3.0816e-01  3.6317e-07  1.9641e-05  0:00:40   15
   226  1.2148e-11  4.6563e-01  3.9925e-01  3.2303e-01  3.5856e-07  1.9852e-05  0:00:32   14
   227  1.2199e-11  4.5504e-01  3.8914e-01  3.1010e-01  3.6282e-07  1.9684e-05  0:00:29   13
   228  1.2145e-11  4.6422e-01  3.9802e-01  3.2205e-01  3.5886e-07  1.9587e-05  0:00:26   12
   229  1.2184e-11  4.5931e-01  3.9274e-01  3.1267e-01  3.6734e-07  2.0147e-05  0:00:24   11
   230  1.2210e-11  4.5455e-01  3.8986e-01  3.1624e-01  3.7981e-07  2.0945e-05  0:00:21   10

  iter  continuity  x-velocity  y-velocity  z-velocity           k       omega     time/iter
   231  1.2395e-11  4.3563e-01  3.7307e-01  2.9750e-01  3.6568e-07  2.0267e-05  0:00:19    9
   232  1.2224e-11  4.7083e-01  4.0389e-01  3.2713e-01  3.5991e-07  1.9828e-05  0:00:20    8
   233  1.2213e-11  4.5308e-01  3.8741e-01  3.0872e-01  3.6310e-07  1.9663e-05  0:00:21    7
   234  1.2170e-11  4.6492e-01  3.9864e-01  3.2255e-01  3.6098e-07  1.9849e-05  0:00:20    6
   235  1.2229e-11  4.5493e-01  3.8904e-01  3.1000e-01  3.6333e-07  1.9689e-05  0:00:17    5
   236  1.2166e-11  4.6407e-01  3.9789e-01  3.2198e-01  3.6073e-07  1.9996e-05  0:00:12    4
   237  1.2235e-11  4.5586e-01  3.8982e-01  3.1080e-01  3.6288e-07  1.9801e-05  0:00:09    3
   238  1.2173e-11  4.6379e-01  3.9768e-01  3.2184e-01  3.6005e-07  2.0028e-05  0:00:05    2
   239  1.2234e-11  4.5639e-01  3.9030e-01  3.1125e-01  3.6238e-07  1.9828e-05  0:00:03    1
   240  1.2174e-11  4.6348e-01  3.9741e-01  3.2164e-01  3.6064e-07  2.0007e-05  0:00:00    0
Flow time = 9.9999997e-10s, time step = 1

Exchanging Data... done.

COUPLING STEP = 1	 COUPLING ITERATION = 13

  iter  continuity  x-velocity  y-velocity  z-velocity           k       omega     time/iter
   240  1.2174e-11  4.6348e-01  3.9741e-01  3.2164e-01  3.6064e-07  2.0007e-05  0:00:48   20

Updating mesh at iteration... done.
   241  1.2238e-11  4.5530e-01  3.8939e-01  3.1050e-01  3.6175e-07  1.9886e-05  0:00:56   19
   242  1.2174e-11  4.6371e-01  3.9761e-01  3.2178e-01  3.6090e-07  2.0046e-05  0:00:53   18
   243  1.2237e-11  4.5496e-01  3.8910e-01  3.1032e-01  3.6171e-07  1.9851e-05  0:00:57   17
   244  1.2173e-11  4.6372e-01  3.9764e-01  3.2185e-01  3.6204e-07  1.9613e-05  0:00:56   16
   245  1.2222e-11  4.5850e-01  3.9205e-01  3.1222e-01  3.6761e-07  2.0190e-05  0:00:51   15
   246  1.2237e-11  4.5550e-01  3.9074e-01  3.1699e-01  3.8053e-07  2.0953e-05  0:00:44   14
   247  1.2410e-11  4.3579e-01  3.7319e-01  2.9765e-01  3.6465e-07  2.0290e-05  0:00:40   13
   248  1.2242e-11  4.7143e-01  4.0444e-01  3.2766e-01  3.6134e-07  1.9866e-05  0:00:34   12
   249  1.2232e-11  4.5288e-01  3.8728e-01  3.0865e-01  3.6300e-07  1.9699e-05  0:00:30   11
   250  1.2190e-11  4.6529e-01  3.9898e-01  3.2291e-01  3.6122e-07  1.9884e-05  0:00:26   10

  iter  continuity  x-velocity  y-velocity  z-velocity           k       omega     time/iter
   251  1.2245e-11  4.5511e-01  3.8921e-01  3.1021e-01  3.6283e-07  1.9718e-05  0:00:22    9
   252  1.2183e-11  4.6404e-01  3.9788e-01  3.2206e-01  3.6111e-07  1.9858e-05  0:00:19    8
   253  1.2241e-11  4.5621e-01  3.9015e-01  3.1094e-01  3.6166e-07  1.9675e-05  0:00:16    7
   254  1.2178e-11  4.6363e-01  3.9753e-01  3.2176e-01  3.6165e-07  1.9667e-05  0:00:13    6
   255  1.2230e-11  4.5884e-01  3.9236e-01  3.1252e-01  3.6864e-07  2.0340e-05  0:00:11    5
   256  1.2263e-11  4.5346e-01  3.8901e-01  3.1581e-01  3.8150e-07  2.1029e-05  0:00:09    4
   257  1.2432e-11  4.3630e-01  3.7367e-01  2.9811e-01  3.6487e-07  2.0252e-05  0:00:06    3
   258  1.2242e-11  4.7209e-01  4.0494e-01  3.2808e-01  3.6105e-07  1.9631e-05  0:00:04    2
   259  1.2221e-11  4.5538e-01  3.8937e-01  3.1020e-01  3.6801e-07  2.0270e-05  0:00:02    1
   260  1.2268e-11  4.5620e-01  3.9139e-01  3.1773e-01  3.8075e-07  2.0981e-05  0:00:00    0
Flow time = 9.9999997e-10s, time step = 1

Exchanging Data... done.

COUPLING STEP = 1	 COUPLING ITERATION = 14

  iter  continuity  x-velocity  y-velocity  z-velocity           k       omega     time/iter
   260  1.2268e-11  4.5620e-01  3.9139e-01  3.1773e-01  3.8075e-07  2.0981e-05  0:00:37   20

Updating mesh at iteration... done.
   261  1.2426e-11  4.3526e-01  3.7275e-01  2.9741e-01  3.6604e-07  2.0386e-05  0:00:59   19
   262  1.2260e-11  4.7150e-01  4.0447e-01  3.2781e-01  3.6192e-07  1.9916e-05  0:00:59   18
   263  1.2252e-11  4.5221e-01  3.8671e-01  3.0838e-01  3.6391e-07  1.9765e-05  0:00:58   17
   264  1.2212e-11  4.6533e-01  3.9905e-01  3.2316e-01  3.6136e-07  1.9858e-05  0:00:57   16
   265  1.2256e-11  4.5523e-01  3.8932e-01  3.1040e-01  3.6337e-07  1.9673e-05  0:01:03   15
   266  1.2200e-11  4.6408e-01  3.9794e-01  3.2222e-01  3.6072e-07  1.9875e-05  0:00:56   14
   267  1.2258e-11  4.5641e-01  3.9033e-01  3.1129e-01  3.6312e-07  1.9708e-05  0:00:49   13
   268  1.2196e-11  4.6372e-01  3.9762e-01  3.2203e-01  3.6082e-07  1.9908e-05  0:00:46   12
   269  1.2265e-11  4.5651e-01  3.9042e-01  3.1142e-01  3.6297e-07  1.9721e-05  0:00:40   11
   270  1.2198e-11  4.6373e-01  3.9764e-01  3.2210e-01  3.6222e-07  1.9870e-05  0:00:35   10

  iter  continuity  x-velocity  y-velocity  z-velocity           k       omega     time/iter
   271  1.2270e-11  4.5620e-01  3.9016e-01  3.1121e-01  3.6216e-07  1.9665e-05  0:00:31    9
   272  1.2198e-11  4.6405e-01  3.9789e-01  3.2232e-01  3.6241e-07  1.9662e-05  0:00:27    8
   273  1.2256e-11  4.5846e-01  3.9207e-01  3.1258e-01  3.6942e-07  2.0372e-05  0:00:21    7
   274  1.2294e-11  4.5341e-01  3.8900e-01  3.1613e-01  3.8199e-07  2.1037e-05  0:00:17    6
   275  1.2458e-11  4.3652e-01  3.7388e-01  2.9859e-01  3.6580e-07  2.0254e-05  0:00:13    5
   276  1.2270e-11  4.7204e-01  4.0492e-01  3.2844e-01  3.6225e-07  1.9612e-05  0:00:12    4
   277  1.2248e-11  4.5590e-01  3.8983e-01  3.1089e-01  3.6855e-07  2.0173e-05  0:00:09    3
   278  1.2291e-11  4.5635e-01  3.9149e-01  3.1813e-01  3.8160e-07  2.0954e-05  0:00:07    2
   279  1.2460e-11  4.3504e-01  3.7259e-01  2.9767e-01  3.6687e-07  2.0287e-05  0:00:04    1
   280  1.2297e-11  4.7153e-01  4.0455e-01  3.2832e-01  3.6232e-07  1.9859e-05  0:00:00    0
Flow time = 9.9999997e-10s, time step = 1

Exchanging Data... done.

COUPLING STEP = 1	 COUPLING ITERATION = 15

  iter  continuity  x-velocity  y-velocity  z-velocity           k       omega     time/iter
   280  1.2297e-11  4.7153e-01  4.0455e-01  3.2832e-01  3.6232e-07  1.9859e-05  0:01:14   20

Updating mesh at iteration... done.
   281  1.2283e-11  4.5291e-01  3.8734e-01  3.0934e-01  3.6471e-07  1.9798e-05  0:01:11   19
   282  1.2249e-11  4.6541e-01  3.9916e-01  3.2377e-01  3.6233e-07  1.9902e-05  0:01:01   18
   283  1.2301e-11  4.5547e-01  3.8958e-01  3.1116e-01  3.6505e-07  1.9710e-05  0:00:53   17
   284  1.2245e-11  4.6408e-01  3.9798e-01  3.2288e-01  3.6326e-07  1.9917e-05  0:00:43   16
   285  1.2312e-11  4.5575e-01  3.8984e-01  3.1150e-01  3.6440e-07  1.9727e-05  0:00:38   15
   286  1.2250e-11  4.6403e-01  3.9797e-01  3.2297e-01  3.6375e-07  1.9903e-05  0:00:34   14
   287  1.2323e-11  4.5584e-01  3.8990e-01  3.1168e-01  3.6482e-07  1.9693e-05  0:00:31   13
   288  1.2256e-11  4.6423e-01  3.9809e-01  3.2318e-01  3.6343e-07  1.9849e-05  0:00:25   12
   289  1.2323e-11  4.5635e-01  3.9034e-01  3.1214e-01  3.6462e-07  1.9688e-05  0:00:23   11
   290  1.2268e-11  4.6375e-01  3.9771e-01  3.2302e-01  3.6472e-07  1.9897e-05  0:00:21   10

  iter  continuity  x-velocity  y-velocity  z-velocity           k       omega     time/iter
   291  1.2342e-11  4.5621e-01  3.9026e-01  3.1224e-01  3.6484e-07  1.9702e-05  0:00:18    9
   292  1.2280e-11  4.6357e-01  3.9758e-01  3.2308e-01  3.6505e-07  1.9925e-05  0:00:15    8
   293  1.2356e-11  4.5671e-01  3.9072e-01  3.1283e-01  3.6602e-07  1.9770e-05  0:00:13    7
   294  1.2298e-11  4.6389e-01  3.9794e-01  3.2357e-01  3.6554e-07  1.9910e-05  0:00:11    6
   295  1.2371e-11  4.5598e-01  3.9007e-01  3.1247e-01  3.6644e-07  1.9691e-05  0:00:10    5
   296  1.2313e-11  4.6414e-01  3.9808e-01  3.2386e-01  3.6572e-07  1.9849e-05  0:00:08    4
   297  1.2386e-11  4.5614e-01  3.9022e-01  3.1277e-01  3.7114e-07  2.0338e-05  0:00:06    3
   298  1.2411e-11  4.5587e-01  3.9120e-01  3.1931e-01  3.8588e-07  2.0975e-05  0:00:04    2
   299  1.2581e-11  4.3633e-01  3.7384e-01  3.0018e-01  3.6960e-07  2.0358e-05  0:00:02    1
   300  1.2418e-11  4.7121e-01  4.0444e-01  3.2995e-01  3.6735e-07  2.0012e-05  0:00:00    0
Flow time = 9.9999997e-10s, time step = 1

Exchanging Data... done.

COUPLING STEP = 1	 COUPLING ITERATION = 16

  iter  continuity  x-velocity  y-velocity  z-velocity           k       omega     time/iter
   300  1.2418e-11  4.7121e-01  4.0444e-01  3.2995e-01  3.6735e-07  2.0012e-05  0:00:51   20

Updating mesh at iteration... done.
   301  1.2431e-11  4.5423e-01  3.8861e-01  3.1224e-01  3.6887e-07  1.9846e-05  0:01:06   19
   302  1.2392e-11  4.6518e-01  3.9910e-01  3.2557e-01  3.6753e-07  1.9679e-05  0:01:01   18
   303  1.2432e-11  4.5870e-01  3.9247e-01  3.1522e-01  3.7515e-07  2.0346e-05  0:00:53   17
   304  1.2479e-11  4.5456e-01  3.9019e-01  3.1950e-01  3.8812e-07  2.1040e-05  0:00:49   16
   305  1.2660e-11  4.3666e-01  3.7421e-01  3.0131e-01  3.7287e-07  2.0251e-05  0:00:43   15
   306  1.2488e-11  4.7267e-01  4.0568e-01  3.3186e-01  3.6949e-07  1.9819e-05  0:00:35   14
   307  1.2503e-11  4.5265e-01  3.8732e-01  3.1210e-01  3.7212e-07  1.9769e-05  0:00:31   13
   308  1.2486e-11  4.6579e-01  3.9975e-01  3.2718e-01  3.6963e-07  1.9877e-05  0:00:25   12
   309  1.2538e-11  4.5712e-01  3.9125e-01  3.1566e-01  3.7603e-07  2.0331e-05  0:00:23   11
   310  1.2580e-11  4.5600e-01  3.9150e-01  3.2166e-01  3.9135e-07  2.1000e-05  0:00:19   10

  iter  continuity  x-velocity  y-velocity  z-velocity           k       omega     time/iter
   311  1.2771e-11  4.3659e-01  3.7426e-01  3.0272e-01  3.7627e-07  2.0333e-05  0:00:17    9
   312  1.2599e-11  4.7316e-01  4.0628e-01  3.3386e-01  3.7272e-07  1.9643e-05  0:00:15    8
   313  1.2605e-11  4.5668e-01  3.9088e-01  3.1621e-01  3.8141e-07  2.0251e-05  0:00:12    7
   314  1.2678e-11  4.5653e-01  3.9206e-01  3.2332e-01  3.9404e-07  2.1024e-05  0:00:11    6
   315  1.2865e-11  4.3631e-01  3.7411e-01  3.0366e-01  3.8045e-07  2.0327e-05  0:00:09    5
   316  1.2718e-11  4.7205e-01  4.0547e-01  3.3448e-01  3.7710e-07  1.9746e-05  0:00:07    4
   317  1.2729e-11  4.5619e-01  3.9064e-01  3.1744e-01  3.8573e-07  2.0374e-05  0:00:05    3
   318  1.2808e-11  4.5581e-01  3.9161e-01  3.2442e-01  3.9804e-07  2.1078e-05  0:00:04    2
   319  1.2993e-11  4.3660e-01  3.7452e-01  3.0547e-01  3.8520e-07  2.0334e-05  0:00:02    1
   320  1.2841e-11  4.7340e-01  4.0675e-01  3.3715e-01  3.8114e-07  1.9946e-05  0:00:00    0
Flow time = 9.9999997e-10s, time step = 1

Exchanging Data... done.

COUPLING STEP = 1	 COUPLING ITERATION = 17

  iter  continuity  x-velocity  y-velocity  z-velocity           k       omega     time/iter
   320  1.2841e-11  4.7340e-01  4.0675e-01  3.3715e-01  3.8114e-07  1.9946e-05  0:00:34   20

Updating mesh at iteration... done.
   321  1.2885e-11  4.5356e-01  3.8856e-01  3.1773e-01  3.8642e-07  1.9865e-05  0:00:33   19
   322  1.2881e-11  4.6622e-01  4.0055e-01  3.3275e-01  3.8342e-07  1.9704e-05  0:00:33   18
   323  1.2943e-11  4.5956e-01  3.9377e-01  3.2265e-01  3.9429e-07  2.0387e-05  0:00:31   17
   324  1.3031e-11  4.5489e-01  3.9104e-01  3.2679e-01  4.0586e-07  2.1095e-05  0:00:27   16
   325  1.3239e-11  4.3798e-01  3.7593e-01  3.0951e-01  3.9375e-07  2.0304e-05  0:00:26   15
   326  1.3104e-11  4.7335e-01  4.0694e-01  3.4055e-01  3.9021e-07  1.9856e-05  0:00:25   14
   327  1.3162e-11  4.5391e-01  3.8912e-01  3.2153e-01  4.0004e-07  2.0439e-05  0:00:21   13
   328  1.3255e-11  4.5835e-01  3.9424e-01  3.3185e-01  3.9515e-07  2.0493e-05  0:00:20   12
   329  1.3327e-11  4.6185e-01  3.9627e-01  3.2890e-01  4.0008e-07  1.9786e-05  0:00:17   11
   330  1.3277e-11  4.6455e-01  3.9956e-01  3.3704e-01  3.9878e-07  1.9903e-05  0:00:17   10

  iter  continuity  x-velocity  y-velocity  z-velocity           k       omega     time/iter
   331  1.3425e-11  4.5916e-01  3.9398e-01  3.2848e-01  4.0318e-07  1.9750e-05  0:00:16    9
   332  1.3412e-11  4.6531e-01  4.0029e-01  3.3929e-01  4.0514e-07  1.9806e-05  0:00:13    8
   333  1.3567e-11  4.6048e-01  3.9525e-01  3.3117e-01  4.1499e-07  2.0469e-05  0:00:12    7
   334  1.3656e-11  4.5576e-01  3.9241e-01  3.3538e-01  4.2885e-07  2.1149e-05  0:00:10    6
   335  1.3907e-11  4.3907e-01  3.7757e-01  3.1852e-01  4.1713e-07  2.0366e-05  0:00:09    5
   336  1.3806e-11  4.7473e-01  4.0894e-01  3.5086e-01  4.1704e-07  1.9757e-05  0:00:07    4
   337  1.3899e-11  4.5721e-01  3.9276e-01  3.3326e-01  4.2728e-07  2.0359e-05  0:00:06    3
   338  1.4024e-11  4.5953e-01  3.9601e-01  3.4267e-01  4.4055e-07  2.1115e-05  0:00:04    2
   339  1.4284e-11  4.3860e-01  3.7751e-01  3.2289e-01  4.3141e-07  2.0423e-05  0:00:02    1
   340  1.4226e-11  4.7550e-01  4.0999e-01  3.5678e-01  4.3140e-07  1.9788e-05  0:00:00    0
Flow time = 9.9999997e-10s, time step = 1

Exchanging Data... done.

COUPLING STEP = 1	 COUPLING ITERATION = 18

  iter  continuity  x-velocity  y-velocity  z-velocity           k       omega     time/iter
   340  1.4226e-11  4.7550e-01  4.0999e-01  3.5678e-01  4.3140e-07  1.9788e-05  0:00:35   20

Updating mesh at iteration... done.
   341  1.4330e-11  4.5809e-01  3.9396e-01  3.3940e-01  4.4651e-07  2.0500e-05  0:00:38   19
   342  1.4522e-11  4.5818e-01  3.9540e-01  3.4749e-01  4.5886e-07  2.1206e-05  0:00:36   18
   343  1.4783e-11  4.3989e-01  3.7910e-01  3.2967e-01  4.5069e-07  2.0479e-05  0:00:31   17
   344  1.4741e-11  4.7532e-01  4.1044e-01  3.6319e-01  4.5156e-07  2.0013e-05  0:00:30   16
   345  1.4901e-11  4.5616e-01  3.9288e-01  3.4488e-01  4.5998e-07  1.9951e-05  0:00:28   15
   346  1.5002e-11  4.6924e-01  4.0537e-01  3.6199e-01  4.6409e-07  2.0163e-05  0:00:27   14
   347  1.5249e-11  4.5798e-01  3.9491e-01  3.5020e-01  4.7342e-07  1.9982e-05  0:00:22   13
   348  1.5329e-11  4.6870e-01  4.0517e-01  3.6557e-01  4.7553e-07  2.0136e-05  0:00:21   12
   349  1.5591e-11  4.5941e-01  3.9647e-01  3.5547e-01  4.8707e-07  1.9990e-05  0:00:20   11
   350  1.5702e-11  4.6851e-01  4.0536e-01  3.6982e-01  4.8929e-07  1.9997e-05  0:00:19   10

  iter  continuity  x-velocity  y-velocity  z-velocity           k       omega     time/iter
   351  1.5972e-11  4.6297e-01  3.9993e-01  3.6269e-01  5.0376e-07  2.0662e-05  0:00:15    9
   352  1.6185e-11  4.5960e-01  3.9821e-01  3.6842e-01  5.1717e-07  2.1372e-05  0:00:16    8
   353  1.6558e-11  4.4334e-01  3.8386e-01  3.5261e-01  5.1307e-07  2.0610e-05  0:00:12    7
   354  1.6594e-11  4.7806e-01  4.1460e-01  3.8772e-01  5.1900e-07  2.0197e-05  0:00:11    6
   355  1.6883e-11  4.5713e-01  3.9573e-01  3.6864e-01  5.3003e-07  2.0142e-05  0:00:09    5
   356  1.7068e-11  4.7181e-01  4.0947e-01  3.8803e-01  5.3623e-07  2.0313e-05  0:00:08    4
   357  1.7420e-11  4.5991e-01  3.9866e-01  3.7666e-01  5.4862e-07  2.0151e-05  0:00:06    3
   358  1.7598e-11  4.7175e-01  4.0987e-01  3.9395e-01  5.5517e-07  2.0349e-05  0:00:04    2
   359  1.7983e-11  4.6107e-01  4.0018e-01  3.8379e-01  5.6882e-07  2.0208e-05  0:00:02    1
   360  1.8187e-11  4.7168e-01  4.1031e-01  4.0028e-01  5.7620e-07  2.0392e-05  0:00:00    0
Flow time = 9.9999997e-10s, time step = 1

Exchanging Data... done.

COUPLING STEP = 1	 COUPLING ITERATION = 19

  iter  continuity  x-velocity  y-velocity  z-velocity           k       omega     time/iter
   360  1.8187e-11  4.7168e-01  4.1031e-01  4.0028e-01  5.7620e-07  2.0392e-05  0:00:36   20

Updating mesh at iteration... done.
   361  1.8607e-11  4.6153e-01  4.0114e-01  3.9074e-01  5.9085e-07  2.0236e-05  0:00:39   19
   362  1.8820e-11  4.7256e-01  4.1157e-01  4.0777e-01  5.9904e-07  2.0473e-05  0:00:36   18
   363  1.9275e-11  4.6179e-01  4.0196e-01  3.9796e-01  6.1508e-07  2.0313e-05  0:00:31   17
   364  1.9513e-11  4.7303e-01  4.1254e-01  4.1532e-01  6.1687e-07  2.0570e-05  0:00:30   16
   365  1.9912e-11  4.6627e-01  4.0645e-01  4.0935e-01  6.3797e-07  2.0443e-05  0:00:28   15
   366  2.0233e-11  4.7347e-01  4.1358e-01  4.2318e-01  6.5527e-07  2.0786e-05  0:00:24   14
   367  2.0778e-11  4.6297e-01  4.0423e-01  4.1414e-01  6.6774e-07  2.0580e-05  0:00:23   13
   368  2.1048e-11  4.7554e-01  4.1589e-01  4.3278e-01  6.7916e-07  2.0435e-05  0:00:22   12
   369  2.1560e-11  4.6599e-01  4.0757e-01  4.2451e-01  7.0216e-07  2.1077e-05  0:00:18   11
   370  2.1958e-11  4.6810e-01  4.1011e-01  4.3456e-01  7.1639e-07  2.1799e-05  0:00:17   10

  iter  continuity  x-velocity  y-velocity  z-velocity           k       omega     time/iter
   371  2.2507e-11  4.5049e-01  3.9494e-01  4.1831e-01  7.2594e-07  2.1141e-05  0:00:14    9
   372  2.2810e-11  4.8262e-01  4.2343e-01  4.5569e-01  7.4603e-07  2.0768e-05  0:00:13    8
   373  2.3368e-11  4.6145e-01  4.0488e-01  4.3678e-01  7.6162e-07  2.0652e-05  0:00:12    7
   374  2.3718e-11  4.7887e-01  4.2060e-01  4.6039e-01  7.7372e-07  2.0651e-05  0:00:09    6
   375  2.4311e-11  4.6661e-01  4.1015e-01  4.5003e-01  8.0132e-07  2.1397e-05  0:00:08    5
   376  2.4764e-11  4.6987e-01  4.1345e-01  4.6079e-01  8.1372e-07  2.2095e-05  0:00:06    4
   377  2.5365e-11  4.5401e-01  4.0014e-01  4.4617e-01  8.2648e-07  2.1352e-05  0:00:05    3
   378  2.5706e-11  4.8606e-01  4.2826e-01  4.8438e-01  8.5184e-07  2.0968e-05  0:00:03    2
   379  2.6356e-11  4.6266e-01  4.0810e-01  4.6327e-01  8.7194e-07  2.1571e-05  0:00:02    1
   380  2.6823e-11  4.7487e-01  4.1894e-01  4.8194e-01  8.8264e-07  2.2189e-05  0:00:00    0
Flow time = 9.9999997e-10s, time step = 1

Exchanging Data... done.

COUPLING STEP = 1	 COUPLING ITERATION = 20

  iter  continuity  x-velocity  y-velocity  z-velocity           k       omega     time/iter
   380  2.6823e-11  4.7487e-01  4.1894e-01  4.8194e-01  8.8264e-07  2.2189e-05  0:00:32   20

Updating mesh at iteration... done.
   381  2.7407e-11  4.5484e-01  4.0218e-01  4.6350e-01  8.9900e-07  2.1712e-05  0:00:36   19
   382  2.7821e-11  4.8630e-01  4.2962e-01  5.0135e-01  9.2879e-07  2.1346e-05  0:00:31   18
   383  2.8497e-11  4.6364e-01  4.1039e-01  4.8082e-01  9.4127e-07  2.1159e-05  0:00:30   17
   384  2.8870e-11  4.8366e-01  4.2760e-01  5.0659e-01  9.5797e-07  2.1113e-05  0:00:29   16
   385  2.9543e-11  4.6891e-01  4.1577e-01  4.9430e-01  9.8442e-07  2.1873e-05  0:00:25   15
   386  3.0020e-11  4.7508e-01  4.2066e-01  5.0598e-01  9.9463e-07  2.2537e-05  0:00:24   14
   387  3.0620e-11  4.5901e-01  4.0788e-01  4.9133e-01  1.0096e-06  2.1809e-05  0:00:23   13
   388  3.1006e-11  4.8924e-01  4.3362e-01  5.2789e-01  1.0421e-06  2.1362e-05  0:00:22   12
   389  3.1700e-11  4.6660e-01  4.1498e-01  5.0722e-01  1.0563e-06  2.1937e-05  0:00:20   11
   390  3.2137e-11  4.7910e-01  4.2505e-01  5.2449e-01  1.0678e-06  2.2668e-05  0:00:17   10

  iter  continuity  x-velocity  y-velocity  z-velocity           k       omega     time/iter
   391  3.2722e-11  4.5981e-01  4.0981e-01  5.0675e-01  1.0786e-06  2.2096e-05  0:00:16    9
   392  3.3110e-11  4.9000e-01  4.3513e-01  5.4281e-01  1.1203e-06  2.1702e-05  0:00:14    8
   393  3.3813e-11  4.6621e-01  4.1584e-01  5.2071e-01  1.1220e-06  2.1559e-05  0:00:11    7
   394  3.4118e-11  4.8768e-01  4.3329e-01  5.4667e-01  1.1446e-06  2.1763e-05  0:00:10    6
   395  3.4814e-11  4.6810e-01  4.1816e-01  5.2926e-01  1.1573e-06  2.1667e-05  0:00:09    5
   396  3.5113e-11  4.8655e-01  4.3261e-01  5.5141e-01  1.1801e-06  2.1677e-05  0:00:06    4
   397  3.5770e-11  4.7035e-01  4.2066e-01  5.3767e-01  1.1940e-06  2.2381e-05  0:00:05    3
   398  3.6125e-11  4.7950e-01  4.2671e-01  5.4954e-01  1.2062e-06  2.3043e-05  0:00:03    2
   399  3.6625e-11  4.6356e-01  4.1519e-01  5.3511e-01  1.2073e-06  2.2297e-05  0:00:02    1
   400  3.6904e-11  4.9306e-01  4.3902e-01  5.6959e-01  1.2576e-06  2.1983e-05  0:00:00    0
Flow time = 9.9999997e-10s, time step = 1

Exchanging Data... done.
Writing "| gzip -2cf > C:\Users\Akash Levy\Documents\NEM-Relay-CAD\ansys\relay_files\dp0\FFF-1\Fluent\FFF-1.2-6-00001.cas.gz"...
Writing temporary file C:\\Users\\AKASHL~1\\AppData\\Local\\Temp\\flntgz-23167 ...
  146875 tetrahedral cells, zone  2, binary.
  284027 triangular interior faces, zone  1, binary.
   11258 triangular wall faces, zone  5, binary.
    8188 triangular wall faces, zone  6, binary.
   29234 nodes, binary.
   29234 node flags, binary.
Done.

Writing "| gzip -2cf > C:\Users\Akash Levy\Documents\NEM-Relay-CAD\ansys\relay_files\dp0\FFF-1\Fluent\FFF-1.2-6-00001.dat.gz"...
Writing temporary file C:\\Users\\AKASHL~1\\AppData\\Local\\Temp\\flntgz-23168 ...
Done.


COUPLING STEP = 2	 COUPLING ITERATION = 1

Updating solution at time level N...
 done.

Updating mesh at time level N... done.

  iter  continuity  x-velocity  y-velocity  z-velocity           k       omega     time/iter
   400  3.6904e-11  4.9306e-01  4.3902e-01  5.6959e-01  1.2576e-06  2.1983e-05  0:00:34   20
   401  3.7728e-11  4.6387e-01  4.1691e-01  5.3774e-01  4.1085e-02  3.0437e-02  0:00:41   19
   402  3.5379e-11  5.8667e-01  5.2300e-01  6.8412e-01  2.3204e-02  9.0716e-03  0:00:42   18
   403  3.8498e-11  3.5844e-01  3.2151e-01  4.1769e-01  1.3379e-02  3.1319e-03  0:00:39   17
   404  3.7366e-11  5.9873e-01  5.3332e-01  7.0342e-01  8.0130e-03  1.2133e-03  0:00:35   16
   405  3.8408e-11  3.5524e-01  3.1849e-01  4.1798e-01  4.9683e-03  5.3904e-04  0:00:36   15
   406  3.8483e-11  5.8523e-01  5.2152e-01  6.9283e-01  3.1705e-03  2.8112e-04  0:00:35   14
   407  3.9252e-11  3.5218e-01  3.1598e-01  4.1786e-01  2.0752e-03  1.6680e-04  0:00:31   13
   408  3.9151e-11  5.9481e-01  5.2998e-01  7.0949e-01  1.3903e-03  1.1096e-04  0:00:28   12
   409  3.9803e-11  3.5321e-01  3.1712e-01  4.2257e-01  9.5441e-04  7.9822e-05  0:00:25   11
   410  3.9958e-11  5.9507e-01  5.3032e-01  7.1460e-01  6.7140e-04  6.2121e-05  0:00:22   10

  iter  continuity  x-velocity  y-velocity  z-velocity           k       omega     time/iter
   411  4.0530e-11  3.5424e-01  3.1830e-01  4.2697e-01  4.6816e-04  5.0399e-05  0:00:19    9
   412  4.0721e-11  5.9471e-01  5.3023e-01  7.1865e-01  3.3638e-04  4.3197e-05  0:00:15    8
   413  4.1237e-11  3.5503e-01  3.1928e-01  4.3085e-01  2.4924e-04  3.7810e-05  0:00:14    7
   414  4.1443e-11  5.9363e-01  5.2943e-01  7.2136e-01  1.9600e-04  3.4397e-05  0:00:11    6
   415  4.1901e-11  3.5668e-01  3.2100e-01  4.3550e-01  1.5777e-04  3.1527e-05  0:00:09    5
   416  4.2044e-11  5.9511e-01  5.3088e-01  7.2695e-01  1.2938e-04  2.9698e-05  0:00:08    4
   417  4.2509e-11  3.5756e-01  3.2204e-01  4.3905e-01  1.0802e-04  2.8009e-05  0:00:07    3
   418  4.2625e-11  5.9404e-01  5.3012e-01  7.2901e-01  9.1284e-05  2.6934e-05  0:00:04    2
   419  4.3094e-11  3.5723e-01  3.2198e-01  4.4081e-01  7.8173e-05  2.5823e-05  0:00:02    1
   420  4.3174e-11  5.9045e-01  5.2709e-01  7.2750e-01  6.7370e-05  2.5198e-05  0:00:00    0
Flow time = 1.999999943436137e-09s, time step = 2

Exchanging Data... done.

COUPLING STEP = 2	 COUPLING ITERATION = 2

  iter  continuity  x-velocity  y-velocity  z-velocity           k       omega     time/iter
   420  4.3174e-11  5.9045e-01  5.2709e-01  7.2750e-01  6.7370e-05  2.5198e-05  0:00:39   20

Updating mesh at iteration... done.
   421  4.3567e-11  3.5838e-01  3.2313e-01  4.4418e-01  5.8630e-05  4.6807e-05  0:00:49   19
   422  4.3650e-11  5.9133e-01  5.2795e-01  7.3123e-01  5.1150e-05  3.1867e-05  0:00:41   18
   423  4.4054e-11  3.5838e-01  3.2334e-01  4.4591e-01  4.4963e-05  2.5963e-05  0:00:37   17
   424  4.4093e-11  5.8979e-01  5.2669e-01  7.3163e-01  3.9524e-05  2.4023e-05  0:00:35   16
   425  4.4444e-11  3.5964e-01  3.2457e-01  4.4903e-01  3.4969e-05  2.3079e-05  0:00:29   15
   426  4.4477e-11  5.9204e-01  5.2875e-01  7.3657e-01  3.0892e-05  2.2816e-05  0:00:27   14
   427  4.4816e-11  3.6037e-01  3.2537e-01  4.5133e-01  2.7458e-05  2.2448e-05  0:00:25   13
   428  4.4813e-11  5.9236e-01  5.2909e-01  7.3884e-01  2.4350e-05  2.2426e-05  0:00:24   12
   429  4.5238e-11  3.5871e-01  3.2408e-01  4.5044e-01  2.1728e-05  2.2159e-05  0:00:19   11
   430  4.5159e-11  5.8704e-01  5.2447e-01  7.3371e-01  1.9305e-05  2.2139e-05  0:00:18   10

  iter  continuity  x-velocity  y-velocity  z-velocity           k       omega     time/iter
   431  4.5456e-11  3.6047e-01  3.2565e-01  4.5375e-01  1.7297e-05  2.1921e-05  0:00:17    9
   432  4.5426e-11  5.8995e-01  5.2708e-01  7.3887e-01  1.5407e-05  2.1989e-05  0:00:15    8
   433  4.5753e-11  3.6018e-01  3.2552e-01  4.5433e-01  1.3862e-05  2.1790e-05  0:00:13    7
   434  4.5675e-11  5.8838e-01  5.2572e-01  7.3813e-01  1.2363e-05  2.1838e-05  0:00:12    6
   435  4.5952e-11  3.6156e-01  3.2678e-01  4.5692e-01  1.1181e-05  2.1671e-05  0:00:09    5
   436  4.5883e-11  5.9004e-01  5.2721e-01  7.4137e-01  9.9994e-06  2.1786e-05  0:00:07    4
   437  4.6177e-11  3.6141e-01  3.2675e-01  4.5748e-01  9.0986e-06  2.1602e-05  0:00:06    3
   438  4.6080e-11  5.8983e-01  5.2706e-01  7.4211e-01  8.1526e-06  2.1699e-05  0:00:04    2
   439  4.6358e-11  3.6177e-01  3.2712e-01  4.5858e-01  7.4721e-06  2.1546e-05  0:00:02    1
   440  4.6247e-11  5.9043e-01  5.2761e-01  7.4375e-01  6.7177e-06  2.1696e-05  0:00:00    0
Flow time = 1.9999999e-09s, time step = 2

Exchanging Data... done.

COUPLING STEP = 2	 COUPLING ITERATION = 3

  iter  continuity  x-velocity  y-velocity  z-velocity           k       omega     time/iter
   440  4.6247e-11  5.9043e-01  5.2761e-01  7.4375e-01  6.7177e-06  2.1696e-05  0:00:39   20

Updating mesh at iteration... done.
   441  4.6555e-11  3.6101e-01  3.2653e-01  4.5820e-01  6.2091e-06  2.2446e-05  0:00:41   19
   442  4.6415e-11  5.8741e-01  5.2498e-01  7.4066e-01  5.5878e-06  2.1951e-05  0:00:38   18
   443  4.6660e-11  3.6208e-01  3.2747e-01  4.6006e-01  5.2203e-06  2.1557e-05  0:00:36   17
   444  4.6543e-11  5.8950e-01  5.2683e-01  7.4400e-01  4.7187e-06  2.1651e-05  0:00:33   16
   445  4.6812e-11  3.6174e-01  3.2725e-01  4.6008e-01  4.4575e-06  2.1493e-05  0:00:31   15
   446  4.6663e-11  5.8803e-01  5.2556e-01  7.4269e-01  4.0338e-06  2.1615e-05  0:00:29   14
   447  4.6899e-11  3.6255e-01  3.2797e-01  4.6151e-01  3.8608e-06  2.1468e-05  0:00:27   13
   448  4.6762e-11  5.9051e-01  5.2775e-01  7.4638e-01  3.5057e-06  2.1622e-05  0:00:24   12
   449  4.6997e-11  3.6303e-01  3.2844e-01  4.6247e-01  3.3988e-06  2.1482e-05  0:00:22   11
   450  4.6845e-11  5.9291e-01  5.2991e-01  7.4991e-01  3.0971e-06  2.1615e-05  0:00:30   10

  iter  continuity  x-velocity  y-velocity  z-velocity           k       omega     time/iter
   451  4.7081e-11  3.6334e-01  3.2875e-01  4.6317e-01  3.0413e-06  2.1469e-05  0:00:29    9
   452  4.6915e-11  5.9179e-01  5.2891e-01  7.4889e-01  2.7893e-06  2.1632e-05  0:00:24    8
   453  4.7194e-11  3.6237e-01  3.2794e-01  4.6219e-01  2.7716e-06  2.1474e-05  0:00:19    7
   454  4.7007e-11  5.8858e-01  5.2609e-01  7.4511e-01  2.5446e-06  2.1635e-05  0:00:17    6
   455  4.7235e-11  3.6280e-01  3.2831e-01  4.6300e-01  2.5567e-06  2.1496e-05  0:00:13    5
   456  4.7069e-11  5.8970e-01  5.2709e-01  7.4686e-01  2.3602e-06  2.1630e-05  0:00:10    4
   457  4.7289e-11  3.6324e-01  3.2873e-01  4.6376e-01  2.3925e-06  2.1478e-05  0:00:07    3
   458  4.7114e-11  5.9216e-01  5.2928e-01  7.5030e-01  2.2347e-06  2.1654e-05  0:00:04    2
   459  4.7418e-11  3.6158e-01  3.2733e-01  4.6178e-01  2.2744e-06  2.1496e-05  0:00:02    1
   460  4.7188e-11  5.8590e-01  5.2375e-01  7.4246e-01  2.1181e-06  2.1625e-05  0:00:00    0
Flow time = 1.9999999e-09s, time step = 2

Exchanging Data... done.

COUPLING STEP = 2	 COUPLING ITERATION = 4

  iter  continuity  x-velocity  y-velocity  z-velocity           k       omega     time/iter
   460  4.7188e-11  5.8590e-01  5.2375e-01  7.4246e-01  2.1181e-06  2.1625e-05  0:00:42   20

Updating mesh at iteration... done.
   461  4.7392e-11  3.6265e-01  3.2822e-01  4.6335e-01  2.1739e-06  2.2221e-05  0:00:47   19
   462  4.7222e-11  5.8821e-01  5.2578e-01  7.4569e-01  2.0460e-06  2.2317e-05  0:00:43   18
   463  4.7477e-11  3.6164e-01  3.2736e-01  4.6230e-01  2.0998e-06  2.1929e-05  0:00:39   17
   464  4.7276e-11  5.8885e-01  5.2641e-01  7.4670e-01  1.9854e-06  2.1612e-05  0:00:36   16
   465  4.7466e-11  3.6310e-01  3.2864e-01  4.6425e-01  2.0424e-06  2.1489e-05  0:00:33   15
   466  4.7288e-11  5.9120e-01  5.2844e-01  7.4988e-01  1.9541e-06  2.1671e-05  0:00:30   14
   467  4.7552e-11  3.6196e-01  3.2769e-01  4.6282e-01  2.0036e-06  2.1516e-05  0:00:28   13
   468  4.7326e-11  5.8646e-01  5.2427e-01  7.4389e-01  1.9151e-06  2.1630e-05  0:00:25   12
   469  4.7527e-11  3.6291e-01  3.2849e-01  4.6415e-01  1.9674e-06  2.1453e-05  0:00:23   11
   470  4.7342e-11  5.8831e-01  5.2588e-01  7.4642e-01  1.8941e-06  2.1614e-05  0:00:21   10

  iter  continuity  x-velocity  y-velocity  z-velocity           k       omega     time/iter
   471  4.7545e-11  3.6346e-01  3.2900e-01  4.6494e-01  1.9397e-06  2.1493e-05  0:00:18    9
   472  4.7353e-11  5.8989e-01  5.2728e-01  7.4852e-01  1.8895e-06  2.1666e-05  0:00:16    8
   473  4.7620e-11  3.6202e-01  3.2777e-01  4.6314e-01  1.9264e-06  2.1502e-05  0:00:13    7
   474  4.7392e-11  5.8705e-01  5.2481e-01  7.4495e-01  1.8703e-06  2.1634e-05  0:00:11    6
   475  4.7583e-11  3.6329e-01  3.2886e-01  4.6485e-01  1.9073e-06  2.1471e-05  0:00:08    5
   476  4.7397e-11  5.8907e-01  5.2656e-01  7.4766e-01  1.8681e-06  2.1659e-05  0:00:07    4
   477  4.7614e-11  3.6308e-01  3.2870e-01  4.6463e-01  1.8972e-06  2.1495e-05  0:00:05    3
   478  4.7410e-11  5.8859e-01  5.2616e-01  7.4713e-01  1.8615e-06  2.1629e-05  0:00:04    2
   479  4.7611e-11  3.6361e-01  3.2916e-01  4.6538e-01  1.8870e-06  2.1492e-05  0:00:02    1
   480  4.7419e-11  5.9126e-01  5.2852e-01  7.5060e-01  1.8633e-06  2.1654e-05  0:00:00    0
Flow time = 1.9999999e-09s, time step = 2

Exchanging Data... done.

COUPLING STEP = 2	 COUPLING ITERATION = 5

  iter  continuity  x-velocity  y-velocity  z-velocity           k       omega     time/iter
   480  4.7419e-11  5.9126e-01  5.2852e-01  7.5060e-01  1.8633e-06  2.1654e-05  0:00:45   20

Updating mesh at iteration... done.
   481  4.7637e-11  3.6336e-01  3.2896e-01  4.6507e-01  1.8829e-06  2.1483e-05  0:00:53   19
   482  4.7429e-11  5.9054e-01  5.2788e-01  7.4974e-01  1.8705e-06  2.1661e-05  0:00:44   18
   483  4.7697e-11  3.6209e-01  3.2786e-01  4.6347e-01  1.8829e-06  2.1509e-05  0:00:40   17
   484  4.7458e-11  5.8684e-01  5.2463e-01  7.4501e-01  1.8656e-06  2.1658e-05  0:00:37   16
   485  4.7684e-11  3.6208e-01  3.2781e-01  4.6350e-01  1.8781e-06  2.1534e-05  0:00:30   15
   486  4.7473e-11  5.8581e-01  5.2371e-01  7.4370e-01  1.8624e-06  2.1692e-05  0:00:28   14
   487  4.7670e-11  3.6296e-01  3.2860e-01  4.6466e-01  1.8727e-06  2.1502e-05  0:00:26   13
   488  4.7466e-11  5.8746e-01  5.2516e-01  7.4591e-01  1.8625e-06  2.1647e-05  0:00:22   12
   489  4.7663e-11  3.6355e-01  3.2911e-01  4.6545e-01  1.8696e-06  2.1483e-05  0:00:20   11
   490  4.7463e-11  5.8922e-01  5.2670e-01  7.4821e-01  1.8676e-06  2.1677e-05  0:00:19   10

  iter  continuity  x-velocity  y-velocity  z-velocity           k       omega     time/iter
   491  4.7686e-11  3.6306e-01  3.2870e-01  4.6485e-01  1.8704e-06  2.1510e-05  0:00:15    9
   492  4.7475e-11  5.8899e-01  5.2651e-01  7.4793e-01  1.8649e-06  2.1645e-05  0:00:14    8
   493  4.7673e-11  3.6360e-01  3.2916e-01  4.6556e-01  1.8667e-06  2.1507e-05  0:00:13    7
   494  4.7474e-11  5.9073e-01  5.2806e-01  7.5019e-01  1.8709e-06  2.1685e-05  0:00:11    6
   495  4.7711e-11  3.6286e-01  3.2855e-01  4.6461e-01  1.8699e-06  2.1507e-05  0:00:09    5
   496  4.7485e-11  5.8804e-01  5.2568e-01  7.4676e-01  1.8665e-06  2.1656e-05  0:00:08    4
   497  4.7684e-11  3.6347e-01  3.2905e-01  4.6544e-01  1.8664e-06  2.1514e-05  0:00:06    3
   498  4.7485e-11  5.9039e-01  5.2775e-01  7.4979e-01  1.8710e-06  2.1682e-05  0:00:04    2
   499  4.7712e-11  3.6295e-01  3.2862e-01  4.6476e-01  1.8692e-06  2.1510e-05  0:00:02    1
   500  4.7492e-11  5.8825e-01  5.2587e-01  7.4708e-01  1.8678e-06  2.1636e-05  0:00:00    0
Flow time = 1.9999999e-09s, time step = 2

Exchanging Data... done.

COUPLING STEP = 2	 COUPLING ITERATION = 6

  iter  continuity  x-velocity  y-velocity  z-velocity           k       omega     time/iter
   500  4.7492e-11  5.8825e-01  5.2587e-01  7.4708e-01  1.8678e-06  2.1636e-05  0:00:38   20

Updating mesh at iteration... done.
   501  4.7691e-11  3.6349e-01  3.2906e-01  4.6546e-01  1.8656e-06  2.1497e-05  0:00:44   19
   502  4.7489e-11  5.8953e-01  5.2698e-01  7.4871e-01  1.8677e-06  2.1673e-05  0:00:40   18
   503  4.7693e-11  3.6365e-01  3.2923e-01  4.6569e-01  1.8656e-06  2.1495e-05  0:00:37   17
   504  4.7490e-11  5.9080e-01  5.2812e-01  7.5038e-01  1.8781e-06  2.1665e-05  0:00:35   16
   505  4.7752e-11  3.6228e-01  3.2805e-01  4.6392e-01  1.8711e-06  2.1515e-05  0:00:32   15
   506  4.7510e-11  5.8641e-01  5.2425e-01  7.4473e-01  1.8682e-06  2.1644e-05  0:00:29   14
   507  4.7697e-11  3.6330e-01  3.2890e-01  4.6526e-01  1.8666e-06  2.1459e-05  0:00:27   13
   508  4.7504e-11  5.8971e-01  5.2716e-01  7.4902e-01  1.8666e-06  2.2101e-05  0:00:25   12
   509  4.7724e-11  3.6301e-01  3.2867e-01  4.6502e-01  1.8636e-06  2.1890e-05  0:00:23   11
   510  4.7514e-11  5.9140e-01  5.2870e-01  7.5122e-01  1.8715e-06  2.1627e-05  0:00:22   10

  iter  continuity  x-velocity  y-velocity  z-velocity           k       omega     time/iter
   511  4.7713e-11  3.6343e-01  3.2903e-01  4.6549e-01  1.8663e-06  2.1518e-05  0:00:20    9
   512  4.7503e-11  5.9103e-01  5.2834e-01  7.5073e-01  1.8680e-06  2.1649e-05  0:00:17    8
   513  4.7700e-11  3.6404e-01  3.2955e-01  4.6622e-01  1.8633e-06  2.1494e-05  0:00:15    7
   514  4.7483e-11  5.9126e-01  5.2851e-01  7.5103e-01  1.8722e-06  2.1656e-05  0:00:13    6
   515  4.7724e-11  3.6330e-01  3.2893e-01  4.6527e-01  1.8679e-06  2.1533e-05  0:00:09    5
   516  4.7504e-11  5.8817e-01  5.2576e-01  7.4700e-01  1.8690e-06  2.1667e-05  0:00:08    4
   517  4.7706e-11  3.6365e-01  3.2921e-01  4.6570e-01  1.8657e-06  2.1476e-05  0:00:06    3
   518  4.7499e-11  5.8980e-01  5.2722e-01  7.4914e-01  1.8701e-06  2.1667e-05  0:00:04    2
   519  4.7712e-11  3.6355e-01  3.2914e-01  4.6560e-01  1.8658e-06  2.1500e-05  0:00:02    1
   520  4.7503e-11  5.8995e-01  5.2737e-01  7.4934e-01  1.8701e-06  2.1652e-05  0:00:00    0
Flow time = 1.9999999e-09s, time step = 2

Exchanging Data... done.

COUPLING STEP = 2	 COUPLING ITERATION = 7

  iter  continuity  x-velocity  y-velocity  z-velocity           k       omega     time/iter
   520  4.7503e-11  5.8995e-01  5.2737e-01  7.4934e-01  1.8701e-06  2.1652e-05  0:00:36   20

Updating mesh at iteration... done.
   521  4.7714e-11  3.6351e-01  3.2911e-01  4.6555e-01  1.8664e-06  2.2344e-05  0:00:43   19
   522  4.7503e-11  5.8998e-01  5.2739e-01  7.4938e-01  1.8750e-06  2.1968e-05  0:00:39   18
   523  4.7741e-11  3.6276e-01  3.2845e-01  4.6458e-01  1.8692e-06  2.1577e-05  0:00:37   17
   524  4.7515e-11  5.8796e-01  5.2561e-01  7.4678e-01  1.8695e-06  2.1652e-05  0:00:31   16
   525  4.7710e-11  3.6348e-01  3.2907e-01  4.6552e-01  1.8657e-06  2.1505e-05  0:00:29   15
   526  4.7510e-11  5.9087e-01  5.2818e-01  7.5051e-01  1.8738e-06  2.1671e-05  0:00:27   14
   527  4.7733e-11  3.6302e-01  3.2869e-01  4.6491e-01  1.8684e-06  2.1497e-05  0:00:23   13
   528  4.7512e-11  5.8805e-01  5.2568e-01  7.4689e-01  1.8691e-06  2.1661e-05  0:00:22   12
   529  4.7709e-11  3.6353e-01  3.2911e-01  4.6560e-01  1.8653e-06  2.1518e-05  0:00:20   11
   530  4.7510e-11  5.9077e-01  5.2809e-01  7.5039e-01  1.8731e-06  2.1662e-05  0:00:17   10

  iter  continuity  x-velocity  y-velocity  z-velocity           k       omega     time/iter
   531  4.7730e-11  3.6313e-01  3.2879e-01  4.6507e-01  1.8679e-06  2.1493e-05  0:00:16    9
   532  4.7511e-11  5.8851e-01  5.2609e-01  7.4750e-01  1.8702e-06  2.1662e-05  0:00:14    8
   533  4.7715e-11  3.6334e-01  3.2895e-01  4.6535e-01  1.8662e-06  2.1517e-05  0:00:11    7
   534  4.7512e-11  5.9054e-01  5.2790e-01  7.5011e-01  1.8671e-06  2.1653e-05  0:00:10    6
   535  4.7703e-11  3.6421e-01  3.2973e-01  4.6648e-01  1.8628e-06  2.1497e-05  0:00:08    5
   536  4.7491e-11  5.9098e-01  5.2826e-01  7.5071e-01  1.8679e-06  2.1656e-05  0:00:07    4
   537  4.7705e-11  3.6400e-01  3.2954e-01  4.6620e-01  1.8641e-06  2.1495e-05  0:00:05    3
   538  4.7498e-11  5.9135e-01  5.2859e-01  7.5115e-01  1.8764e-06  2.1671e-05  0:00:03    2
   539  4.7750e-11  3.6290e-01  3.2860e-01  4.6477e-01  1.8690e-06  2.1500e-05  0:00:02    1
   540  4.7515e-11  5.8719e-01  5.2492e-01  7.4580e-01  1.8684e-06  2.1637e-05  0:00:00    0
Flow time = 1.9999999e-09s, time step = 2

Exchanging Data... done.

COUPLING STEP = 2	 COUPLING ITERATION = 8

  iter  continuity  x-velocity  y-velocity  z-velocity           k       omega     time/iter
   540  4.7515e-11  5.8719e-01  5.2492e-01  7.4580e-01  1.8684e-06  2.1637e-05  0:00:35   20

Updating mesh at iteration... done.
   541  4.7706e-11  3.6362e-01  3.2919e-01  4.6573e-01  1.8646e-06  2.2324e-05  0:00:41   19
   542  4.7507e-11  5.8970e-01  5.2714e-01  7.4905e-01  1.8722e-06  2.1941e-05  0:00:39   18
   543  4.7726e-11  3.6323e-01  3.2887e-01  4.6521e-01  1.8677e-06  2.1573e-05  0:00:36   17
   544  4.7512e-11  5.8866e-01  5.2622e-01  7.4770e-01  1.8781e-06  2.1699e-05  0:00:30   16
   545  4.7766e-11  3.6204e-01  3.2783e-01  4.6367e-01  1.8709e-06  2.1528e-05  0:00:29   15
   546  4.7529e-11  5.8683e-01  5.2463e-01  7.4533e-01  1.8684e-06  2.1644e-05  0:00:27   14
   547  4.7709e-11  3.6345e-01  3.2904e-01  4.6550e-01  1.8662e-06  2.1464e-05  0:00:25   13
   548  4.7515e-11  5.8948e-01  5.2695e-01  7.4879e-01  1.8675e-06  2.2097e-05  0:00:23   12
   549  4.7737e-11  3.6300e-01  3.2867e-01  4.6505e-01  1.8635e-06  2.1883e-05  0:00:22   11
   550  4.7521e-11  5.9105e-01  5.2837e-01  7.5083e-01  1.8803e-06  2.1643e-05  0:00:18   10

  iter  continuity  x-velocity  y-velocity  z-velocity           k       omega     time/iter
   551  4.7771e-11  3.6205e-01  3.2783e-01  4.6374e-01  1.8717e-06  2.1524e-05  0:00:16    9
   552  4.7529e-11  5.8736e-01  5.2511e-01  7.4606e-01  1.8694e-06  2.1653e-05  0:00:13    8
   553  4.7716e-11  3.6327e-01  3.2887e-01  4.6528e-01  1.8656e-06  2.1510e-05  0:00:12    7
   554  4.7513e-11  5.8810e-01  5.2572e-01  7.4701e-01  1.8759e-06  2.1674e-05  0:00:11    6
   555  4.7749e-11  3.6245e-01  3.2818e-01  4.6421e-01  1.8698e-06  2.1514e-05  0:00:08    5
   556  4.7523e-11  5.8719e-01  5.2493e-01  7.4581e-01  1.8691e-06  2.1644e-05  0:00:07    4
   557  4.7712e-11  3.6340e-01  3.2899e-01  4.6543e-01  1.8656e-06  2.1497e-05  0:00:05    3
   558  4.7516e-11  5.8982e-01  5.2726e-01  7.4919e-01  1.8736e-06  2.1681e-05  0:00:03    2
   559  4.7736e-11  3.6293e-01  3.2860e-01  4.6480e-01  1.8689e-06  2.1502e-05  0:00:02    1
   560  4.7516e-11  5.8786e-01  5.2552e-01  7.4667e-01  1.8772e-06  2.1661e-05  0:00:00    0
Flow time = 1.9999999e-09s, time step = 2

Exchanging Data... done.

COUPLING STEP = 2	 COUPLING ITERATION = 9

  iter  continuity  x-velocity  y-velocity  z-velocity           k       omega     time/iter
   560  4.7516e-11  5.8786e-01  5.2552e-01  7.4667e-01  1.8772e-06  2.1661e-05  0:00:31   20

Updating mesh at iteration... done.
   561  4.7762e-11  3.6207e-01  3.2785e-01  4.6370e-01  1.8709e-06  2.1514e-05  0:00:35   19
   562  4.7529e-11  5.8589e-01  5.2378e-01  7.4412e-01  1.8690e-06  2.1649e-05  0:00:34   18
   563  4.7714e-11  3.6315e-01  3.2877e-01  4.6511e-01  1.8667e-06  2.1464e-05  0:00:29   17
   564  4.7518e-11  5.8807e-01  5.2569e-01  7.4696e-01  1.8752e-06  2.2105e-05  0:00:28   16
   565  4.7776e-11  3.6162e-01  3.2746e-01  4.6326e-01  1.8686e-06  2.1889e-05  0:00:27   15
   566  4.7541e-11  5.8667e-01  5.2449e-01  7.4518e-01  1.8705e-06  2.1646e-05  0:00:23   14
   567  4.7716e-11  3.6301e-01  3.2864e-01  4.6501e-01  1.8666e-06  2.1527e-05  0:00:22   13
   568  4.7522e-11  5.8884e-01  5.2639e-01  7.4799e-01  1.8710e-06  2.1657e-05  0:00:19   12
   569  4.7719e-11  3.6330e-01  3.2892e-01  4.6533e-01  1.8672e-06  2.1509e-05  0:00:18   11
   570  4.7514e-11  5.8991e-01  5.2733e-01  7.4933e-01  1.8789e-06  2.1685e-05  0:00:17   10

  iter  continuity  x-velocity  y-velocity  z-velocity           k       omega     time/iter
   571  4.7769e-11  3.6215e-01  3.2792e-01  4.6381e-01  1.8709e-06  2.1530e-05  0:00:14    9
   572  4.7528e-11  5.8692e-01  5.2472e-01  7.4546e-01  1.8740e-06  2.1656e-05  0:00:13    8
   573  4.7749e-11  3.6220e-01  3.2794e-01  4.6389e-01  1.8702e-06  2.1537e-05  0:00:11    7
   574  4.7534e-11  5.8634e-01  5.2420e-01  7.4469e-01  1.8744e-06  2.1701e-05  0:00:10    6
   575  4.7760e-11  3.6213e-01  3.2790e-01  4.6378e-01  1.8707e-06  2.1511e-05  0:00:09    5
   576  4.7530e-11  5.8492e-01  5.2293e-01  7.4289e-01  1.8702e-06  2.1653e-05  0:00:06    4
   577  4.7721e-11  3.6312e-01  3.2875e-01  4.6507e-01  1.8663e-06  2.1498e-05  0:00:05    3
   578  4.7522e-11  5.8846e-01  5.2606e-01  7.4745e-01  1.8724e-06  2.1669e-05  0:00:03    2
   579  4.7729e-11  3.6306e-01  3.2871e-01  4.6498e-01  1.8675e-06  2.1498e-05  0:00:02    1
   580  4.7513e-11  5.8735e-01  5.2505e-01  7.4601e-01  1.8696e-06  2.1643e-05  0:00:00    0
Flow time = 1.9999999e-09s, time step = 2

Exchanging Data... done.

COUPLING STEP = 2	 COUPLING ITERATION = 10

  iter  continuity  x-velocity  y-velocity  z-velocity           k       omega     time/iter
   580  4.7513e-11  5.8735e-01  5.2505e-01  7.4601e-01  1.8696e-06  2.1643e-05  0:00:36   20

Updating mesh at iteration... done.
   581  4.7714e-11  3.6341e-01  3.2901e-01  4.6544e-01  1.8665e-06  2.1487e-05  0:00:43   19
   582  4.7512e-11  5.8972e-01  5.2716e-01  7.4907e-01  1.8779e-06  2.1678e-05  0:00:40   18
   583  4.7760e-11  3.6235e-01  3.2810e-01  4.6407e-01  1.8699e-06  2.1520e-05  0:00:33   17
   584  4.7525e-11  5.8713e-01  5.2490e-01  7.4573e-01  1.8684e-06  2.1643e-05  0:00:32   16
   585  4.7710e-11  3.6361e-01  3.2918e-01  4.6570e-01  1.8646e-06  2.1481e-05  0:00:27   15
   586  4.7511e-11  5.8965e-01  5.2710e-01  7.4899e-01  1.8763e-06  2.1671e-05  0:00:26   14
   587  4.7747e-11  3.6265e-01  3.2838e-01  4.6447e-01  1.8701e-06  2.1507e-05  0:00:24   13
   588  4.7520e-11  5.8736e-01  5.2507e-01  7.4602e-01  1.8697e-06  2.1637e-05  0:00:20   12
   589  4.7714e-11  3.6341e-01  3.2900e-01  4.6544e-01  1.8661e-06  2.1498e-05  0:00:19   11
   590  4.7515e-11  5.9045e-01  5.2781e-01  7.4999e-01  1.8716e-06  2.1676e-05  0:00:16   10

  iter  continuity  x-velocity  y-velocity  z-velocity           k       omega     time/iter
   591  4.7723e-11  3.6333e-01  3.2896e-01  4.6533e-01  1.8669e-06  2.1498e-05  0:00:15    9
   592  4.7510e-11  5.8983e-01  5.2726e-01  7.4921e-01  1.8790e-06  2.1683e-05  0:00:12    8
   593  4.7773e-11  3.6205e-01  3.2785e-01  4.6368e-01  1.8716e-06  2.1529e-05  0:00:11    7
   594  4.7529e-11  5.8672e-01  5.2454e-01  7.4518e-01  1.8682e-06  2.1645e-05  0:00:10    6
   595  4.7708e-11  3.6357e-01  3.2914e-01  4.6566e-01  1.8655e-06  2.1487e-05  0:00:08    5
   596  4.7511e-11  5.8944e-01  5.2690e-01  7.4872e-01  1.8800e-06  2.1688e-05  0:00:07    4
   597  4.7773e-11  3.6199e-01  3.2779e-01  4.6360e-01  1.8713e-06  2.1527e-05  0:00:05    3
   598  4.7530e-11  5.8562e-01  5.2356e-01  7.4379e-01  1.8735e-06  2.1657e-05  0:00:03    2
   599  4.7749e-11  3.6204e-01  3.2778e-01  4.6367e-01  1.8706e-06  2.1537e-05  0:00:01    1
   600  4.7537e-11  5.8621e-01  5.2407e-01  7.4451e-01  1.8699e-06  2.1693e-05  0:00:00    0
Flow time = 1.9999999e-09s, time step = 2

Exchanging Data... done.

COUPLING STEP = 2	 COUPLING ITERATION = 11

  iter  continuity  x-velocity  y-velocity  z-velocity           k       omega     time/iter
   600  4.7537e-11  5.8621e-01  5.2407e-01  7.4451e-01  1.8699e-06  2.1693e-05  0:00:32   20

Updating mesh at iteration... done.
   601  4.7729e-11  3.6303e-01  3.2869e-01  4.6495e-01  1.8668e-06  2.1507e-05  0:00:36   19
   602  4.7519e-11  5.8713e-01  5.2488e-01  7.4576e-01  1.8697e-06  2.1669e-05  0:00:34   18
   603  4.7724e-11  3.6330e-01  3.2893e-01  4.6532e-01  1.8654e-06  2.1509e-05  0:00:33   17
   604  4.7513e-11  5.8793e-01  5.2558e-01  7.4679e-01  1.8698e-06  2.1667e-05  0:00:31   16
   605  4.7718e-11  3.6357e-01  3.2915e-01  4.6565e-01  1.8657e-06  2.1499e-05  0:00:29   15
   606  4.7511e-11  5.8975e-01  5.2719e-01  7.4912e-01  1.8713e-06  2.1655e-05  0:00:27   14
   607  4.7723e-11  3.6338e-01  3.2900e-01  4.6541e-01  1.8670e-06  2.1498e-05  0:00:26   13
   608  4.7509e-11  5.8869e-01  5.2624e-01  7.4775e-01  1.8798e-06  2.1681e-05  0:00:21   12
   609  4.7776e-11  3.6182e-01  3.2764e-01  4.6340e-01  1.8721e-06  2.1528e-05  0:00:20   11
   610  4.7533e-11  5.8651e-01  5.2435e-01  7.4493e-01  1.8686e-06  2.1648e-05  0:00:19   10

  iter  continuity  x-velocity  y-velocity  z-velocity           k       omega     time/iter
   611  4.7712e-11  3.6337e-01  3.2896e-01  4.6540e-01  1.8667e-06  2.1465e-05  0:00:17    9
   612  4.7519e-11  5.8988e-01  5.2731e-01  7.4930e-01  1.8679e-06  2.2098e-05  0:00:14    8
   613  4.7738e-11  3.6297e-01  3.2864e-01  4.6501e-01  1.8638e-06  2.1895e-05  0:00:12    7
   614  4.7526e-11  5.9117e-01  5.2849e-01  7.5098e-01  1.8723e-06  2.1628e-05  0:00:11    6
   615  4.7725e-11  3.6331e-01  3.2892e-01  4.6536e-01  1.8669e-06  2.1521e-05  0:00:09    5
   616  4.7513e-11  5.9033e-01  5.2772e-01  7.4988e-01  1.8838e-06  2.1681e-05  0:00:08    4
   617  4.7800e-11  3.6151e-01  3.2738e-01  4.6298e-01  1.8732e-06  2.1523e-05  0:00:05    3
   618  4.7536e-11  5.8485e-01  5.2288e-01  7.4279e-01  1.8687e-06  2.1650e-05  0:00:04    2
   619  4.7714e-11  3.6326e-01  3.2886e-01  4.6526e-01  1.8669e-06  2.1464e-05  0:00:02    1
   620  4.7522e-11  5.8959e-01  5.2705e-01  7.4892e-01  1.8732e-06  2.2075e-05  0:00:00    0
Flow time = 1.9999999e-09s, time step = 2

Exchanging Data... done.

COUPLING STEP = 2	 COUPLING ITERATION = 12

  iter  continuity  x-velocity  y-velocity  z-velocity           k       omega     time/iter
   620  4.7522e-11  5.8959e-01  5.2705e-01  7.4892e-01  1.8732e-06  2.2075e-05  0:00:34   20

Updating mesh at iteration... done.
   621  4.7762e-11  3.6214e-01  3.2791e-01  4.6392e-01  1.8679e-06  3.7596e-05  0:00:41   19
   622  4.7535e-11  5.8795e-01  5.2563e-01  7.4682e-01  1.8693e-06  2.7647e-05  0:00:38   18
   623  4.7711e-11  3.6360e-01  3.2916e-01  4.6575e-01  1.8662e-06  2.3338e-05  0:00:32   17
   624  4.7512e-11  5.9013e-01  5.2750e-01  7.4963e-01  1.8757e-06  2.2161e-05  0:00:31   16
   625  4.7740e-11  3.6285e-01  3.2852e-01  4.6472e-01  1.8686e-06  2.1606e-05  0:00:26   15
   626  4.7517e-11  5.8829e-01  5.2589e-01  7.4723e-01  1.8697e-06  2.1659e-05  0:00:25   14
   627  4.7715e-11  3.6351e-01  3.2909e-01  4.6557e-01  1.8663e-06  2.1510e-05  0:00:24   13
   628  4.7515e-11  5.9127e-01  5.2854e-01  7.5105e-01  1.8711e-06  2.1658e-05  0:00:22   12
   629  4.7720e-11  3.6353e-01  3.2913e-01  4.6558e-01  1.8666e-06  2.1487e-05  0:00:19   11
   630  4.7511e-11  5.9049e-01  5.2785e-01  7.5005e-01  1.8803e-06  2.1685e-05  0:00:18   10

  iter  continuity  x-velocity  y-velocity  z-velocity           k       omega     time/iter
   631  4.7779e-11  3.6210e-01  3.2790e-01  4.6374e-01  1.8719e-06  2.1525e-05  0:00:14    9
   632  4.7528e-11  5.8645e-01  5.2430e-01  7.4485e-01  1.8690e-06  2.1650e-05  0:00:13    8
   633  4.7715e-11  3.6327e-01  3.2888e-01  4.6527e-01  1.8663e-06  2.1490e-05  0:00:12    7
   634  4.7515e-11  5.8833e-01  5.2592e-01  7.4728e-01  1.8757e-06  2.1663e-05  0:00:11    6
   635  4.7747e-11  3.6253e-01  3.2825e-01  4.6430e-01  1.8692e-06  2.1509e-05  0:00:09    5
   636  4.7523e-11  5.8736e-01  5.2509e-01  7.4601e-01  1.8687e-06  2.1647e-05  0:00:07    4
   637  4.7711e-11  3.6352e-01  3.2910e-01  4.6558e-01  1.8661e-06  2.1483e-05  0:00:05    3
   638  4.7511e-11  5.8867e-01  5.2621e-01  7.4772e-01  1.8768e-06  2.1667e-05  0:00:04    2
   639  4.7751e-11  3.6251e-01  3.2824e-01  4.6428e-01  1.8696e-06  2.1513e-05  0:00:02    1
   640  4.7522e-11  5.8718e-01  5.2492e-01  7.4579e-01  1.8696e-06  2.1648e-05  0:00:00    0
Flow time = 1.9999999e-09s, time step = 2

Exchanging Data... done.

COUPLING STEP = 2	 COUPLING ITERATION = 13

  iter  continuity  x-velocity  y-velocity  z-velocity           k       omega     time/iter
   640  4.7522e-11  5.8718e-01  5.2492e-01  7.4579e-01  1.8696e-06  2.1648e-05  0:00:34   20

Updating mesh at iteration... done.
   641  4.7714e-11  3.6329e-01  3.2890e-01  4.6529e-01  1.8671e-06  3.7130e-05  0:00:45   19
   642  4.7517e-11  5.8875e-01  5.2630e-01  7.4780e-01  1.8717e-06  2.7712e-05  0:00:41   18
   643  4.7724e-11  3.6329e-01  3.2892e-01  4.6528e-01  1.8679e-06  2.3384e-05  0:00:38   17
   644  4.7515e-11  5.8991e-01  5.2734e-01  7.4931e-01  1.8858e-06  2.2211e-05  0:00:32   16
   645  4.7811e-11  3.6111e-01  3.2704e-01  4.6246e-01  1.8751e-06  2.1653e-05  0:00:30   15
   646  4.7544e-11  5.8335e-01  5.2154e-01  7.4085e-01  1.8726e-06  2.1690e-05  0:00:28   14
   647  4.7743e-11  3.6186e-01  3.2762e-01  4.6347e-01  1.8705e-06  2.1515e-05  0:00:23   13
   648  4.7539e-11  5.8554e-01  5.2349e-01  7.4370e-01  1.8711e-06  2.1652e-05  0:00:22   12
   649  4.7726e-11  3.6303e-01  3.2865e-01  4.6495e-01  1.8673e-06  2.1531e-05  0:00:21   11
   650  4.7524e-11  5.8732e-01  5.2502e-01  7.4595e-01  1.8708e-06  2.1675e-05  0:00:19   10

  iter  continuity  x-velocity  y-velocity  z-velocity           k       omega     time/iter
   651  4.7720e-11  3.6347e-01  3.2907e-01  4.6550e-01  1.8665e-06  2.1481e-05  0:00:17    9
   652  4.7513e-11  5.8963e-01  5.2708e-01  7.4895e-01  1.8714e-06  2.1649e-05  0:00:15    8
   653  4.7723e-11  3.6337e-01  3.2899e-01  4.6538e-01  1.8665e-06  2.1502e-05  0:00:12    7
   654  4.7509e-11  5.8913e-01  5.2664e-01  7.4829e-01  1.8839e-06  2.1686e-05  0:00:11    6
   655  4.7804e-11  3.6122e-01  3.2713e-01  4.6260e-01  1.8742e-06  2.1519e-05  0:00:10    5
   656  4.7541e-11  5.8407e-01  5.2218e-01  7.4175e-01  1.8686e-06  2.1663e-05  0:00:07    4
   657  4.7715e-11  3.6325e-01  3.2885e-01  4.6524e-01  1.8654e-06  2.1505e-05  0:00:06    3
   658  4.7522e-11  5.8820e-01  5.2581e-01  7.4710e-01  1.8816e-06  2.1681e-05  0:00:03    2
   659  4.7780e-11  3.6164e-01  3.2748e-01  4.6315e-01  1.8722e-06  2.1514e-05  0:00:02    1
   660  4.7536e-11  5.8422e-01  5.2230e-01  7.4196e-01  1.8691e-06  2.1646e-05  0:00:00    0
Flow time = 1.9999999e-09s, time step = 2

Exchanging Data... done.

COUPLING STEP = 2	 COUPLING ITERATION = 14

  iter  continuity  x-velocity  y-velocity  z-velocity           k       omega     time/iter
   660  4.7536e-11  5.8422e-01  5.2230e-01  7.4196e-01  1.8691e-06  2.1646e-05  0:00:36   20

Updating mesh at iteration... done.
   661  4.7716e-11  3.6306e-01  3.2868e-01  4.6499e-01  1.8664e-06  2.1525e-05  0:00:43   19
   662  4.7524e-11  5.8794e-01  5.2558e-01  7.4674e-01  1.8711e-06  2.1681e-05  0:00:39   18
   663  4.7722e-11  3.6332e-01  3.2894e-01  4.6530e-01  1.8661e-06  2.1496e-05  0:00:33   17
   664  4.7519e-11  5.8958e-01  5.2707e-01  7.4887e-01  1.8697e-06  2.1654e-05  0:00:31   16
   665  4.7716e-11  3.6365e-01  3.2924e-01  4.6574e-01  1.8664e-06  2.1484e-05  0:00:30   15
   666  4.7510e-11  5.9036e-01  5.2772e-01  7.4988e-01  1.8721e-06  2.1671e-05  0:00:25   14
   667  4.7729e-11  3.6329e-01  3.2892e-01  4.6528e-01  1.8676e-06  2.1507e-05  0:00:24   13
   668  4.7512e-11  5.8939e-01  5.2688e-01  7.4864e-01  1.8774e-06  2.1675e-05  0:00:22   12
   669  4.7759e-11  3.6234e-01  3.2809e-01  4.6407e-01  1.8704e-06  2.1523e-05  0:00:21   11
   670  4.7525e-11  5.8715e-01  5.2490e-01  7.4575e-01  1.8682e-06  2.1646e-05  0:00:19   10

  iter  continuity  x-velocity  y-velocity  z-velocity           k       omega     time/iter
   671  4.7708e-11  3.6358e-01  3.2915e-01  4.6567e-01  1.8652e-06  2.1499e-05  0:00:23    9
   672  4.7514e-11  5.9014e-01  5.2754e-01  7.4961e-01  1.8708e-06  2.1678e-05  0:00:21    8
   673  4.7721e-11  3.6347e-01  3.2908e-01  4.6552e-01  1.8665e-06  2.1502e-05  0:00:19    7
   674  4.7511e-11  5.8988e-01  5.2731e-01  7.4929e-01  1.8800e-06  2.1685e-05  0:00:14    6
   675  4.7778e-11  3.6203e-01  3.2784e-01  4.6367e-01  1.8714e-06  2.1527e-05  0:00:11    5
   676  4.7529e-11  5.8634e-01  5.2421e-01  7.4471e-01  1.8737e-06  2.1656e-05  0:00:09    4
   677  4.7748e-11  3.6217e-01  3.2791e-01  4.6384e-01  1.8698e-06  2.1536e-05  0:00:06    3
   678  4.7534e-11  5.8573e-01  5.2364e-01  7.4389e-01  1.8704e-06  2.1696e-05  0:00:04    2
   679  4.7730e-11  3.6293e-01  3.2860e-01  4.6483e-01  1.8669e-06  2.1507e-05  0:00:02    1
   680  4.7519e-11  5.8683e-01  5.2461e-01  7.4537e-01  1.8690e-06  2.1646e-05  0:00:00    0
Flow time = 1.9999999e-09s, time step = 2

Exchanging Data... done.

COUPLING STEP = 2	 COUPLING ITERATION = 15

  iter  continuity  x-velocity  y-velocity  z-velocity           k       omega     time/iter
[...]
  1844  4.8911e-11  3.2619e-01  2.9200e-01  4.2246e-01  1.6684e-06  2.5116e-05  0:00:50   16
  1845  4.9304e-11  2.2020e-01  1.9954e-01  2.8720e-01  1.6586e-06  2.4933e-05  0:00:44   15
  1846  4.8915e-11  3.2601e-01  2.9184e-01  4.2220e-01  1.6686e-06  2.5097e-05  0:00:41   14
  1847  4.9310e-11  2.2004e-01  1.9941e-01  2.8699e-01  1.6619e-06  2.4936e-05  0:00:36   13
  1848  4.8926e-11  3.2597e-01  2.9182e-01  4.2213e-01  1.6666e-06  2.5096e-05  0:00:31   12
  1849  4.9302e-11  2.2005e-01  1.9941e-01  2.8700e-01  1.6623e-06  2.4923e-05  0:00:27   11
  1850  4.8922e-11  3.2590e-01  2.9173e-01  4.2204e-01  1.6687e-06  2.5075e-05  0:00:22   10

  iter  continuity  x-velocity  y-velocity  z-velocity           k       omega     time/iter
  1851  4.9303e-11  2.1999e-01  1.9936e-01  2.8691e-01  1.6628e-06  2.4939e-05  0:00:21    9
  1852  4.8929e-11  3.2600e-01  2.9183e-01  4.2216e-01  1.6662e-06  2.5093e-05  0:00:17    8
  1853  4.9300e-11  2.2005e-01  1.9941e-01  2.8700e-01  1.6632e-06  2.4921e-05  0:00:14    7
  1854  4.8924e-11  3.2590e-01  2.9173e-01  4.2203e-01  1.6685e-06  2.5067e-05  0:00:12    6
  1855  4.9304e-11  2.1998e-01  1.9936e-01  2.8691e-01  1.6654e-06  2.4925e-05  0:00:10    5
  1856  4.8944e-11  3.2605e-01  2.9192e-01  4.2223e-01  1.6649e-06  2.5103e-05  0:00:08    4
  1857  4.9303e-11  2.2009e-01  1.9945e-01  2.8705e-01  1.6633e-06  2.4922e-05  0:00:06    3
  1858  4.8922e-11  3.2597e-01  2.9179e-01  4.2214e-01  1.6677e-06  2.5069e-05  0:00:04    2
  1859  4.9301e-11  2.2000e-01  1.9937e-01  2.8694e-01  1.6625e-06  2.4939e-05  0:00:02    1
  1860  4.8926e-11  3.2598e-01  2.9181e-01  4.2214e-01  1.6661e-06  2.5090e-05  0:00:00    0
Flow time = 5e-09s, time step = 5

Exchanging Data... done.

COUPLING STEP = 5	 COUPLING ITERATION = 14

  iter  continuity  x-velocity  y-velocity  z-velocity           k       omega     time/iter
  1860  4.8926e-11  3.2598e-01  2.9181e-01  4.2214e-01  1.6661e-06  2.5090e-05  0:00:38   20

Updating mesh at iteration... done.
  1861  4.9299e-11  2.2003e-01  1.9939e-01  2.8697e-01  1.6629e-06  2.5381e-05  0:00:51   19
  1862  4.8925e-11  3.2594e-01  2.9177e-01  4.2209e-01  1.6677e-06  2.5253e-05  0:00:46   18
  1863  4.9300e-11  2.2002e-01  1.9938e-01  2.8695e-01  1.6647e-06  2.4965e-05  0:00:45   17
  1864  4.8929e-11  3.2597e-01  2.9180e-01  4.2214e-01  1.6495e-06  2.5069e-05  0:00:47   16
  1865  4.9273e-11  2.2056e-01  1.9988e-01  2.8772e-01  1.6510e-06  2.4930e-05  0:00:41   15
  1866  4.8907e-11  3.2633e-01  2.9212e-01  4.2265e-01  1.6675e-06  2.5090e-05  0:00:39   14
  1867  4.9303e-11  2.2024e-01  1.9958e-01  2.8725e-01  1.6579e-06  2.4934e-05  0:00:47   13
  1868  4.8912e-11  3.2611e-01  2.9193e-01  4.2234e-01  1.6708e-06  2.5102e-05  0:00:44   12
  1869  4.9315e-11  2.2002e-01  1.9940e-01  2.8696e-01  1.6638e-06  2.4940e-05  0:00:46   11
  1870  4.8938e-11  3.2600e-01  2.9187e-01  4.2217e-01  1.6653e-06  2.5102e-05  0:00:43   10

  iter  continuity  x-velocity  y-velocity  z-velocity           k       omega     time/iter
  1871  4.9305e-11  2.2008e-01  1.9945e-01  2.8705e-01  1.6627e-06  2.4924e-05  0:00:51    9
  1872  4.8923e-11  3.2602e-01  2.9184e-01  4.2221e-01  1.6681e-06  2.5069e-05  0:00:47    8
  1873  4.9302e-11  2.2003e-01  1.9939e-01  2.8697e-01  1.6630e-06  2.4916e-05  0:00:39    7
  1874  4.8924e-11  3.2596e-01  2.9179e-01  4.2212e-01  1.6689e-06  2.5067e-05  0:00:35    6
  1875  4.9306e-11  2.1994e-01  1.9932e-01  2.8685e-01  1.6655e-06  2.4931e-05  0:00:28    5
  1876  4.8945e-11  3.2598e-01  2.9185e-01  4.2214e-01  1.6673e-06  2.5096e-05  0:00:22    4
  1877  4.9304e-11  2.2005e-01  1.9943e-01  2.8700e-01  1.6637e-06  2.4919e-05  0:00:16    3
  1878  4.8925e-11  3.2596e-01  2.9180e-01  4.2213e-01  1.6686e-06  2.5072e-05  0:00:11    2
  1879  4.9303e-11  2.2000e-01  1.9936e-01  2.8693e-01  1.6636e-06  2.4916e-05  0:00:06    1
  1880  4.8928e-11  3.2601e-01  2.9183e-01  4.2219e-01  1.6686e-06  2.5081e-05  0:00:00    0
Flow time = 5e-09s, time step = 5

Exchanging Data... done.

COUPLING STEP = 5	 COUPLING ITERATION = 15

  iter  continuity  x-velocity  y-velocity  z-velocity           k       omega     time/iter
  1880  4.8928e-11  3.2601e-01  2.9183e-01  4.2219e-01  1.6686e-06  2.5081e-05  0:01:50   20

Updating mesh at iteration... done.
  1881  4.9305e-11  2.2000e-01  1.9937e-01  2.8693e-01  1.6634e-06  2.5396e-05  0:01:47   19
  1882  4.8928e-11  3.2601e-01  2.9184e-01  4.2218e-01  1.6664e-06  2.5257e-05  0:01:32   18
  1883  4.9298e-11  2.2005e-01  1.9942e-01  2.8701e-01  1.6651e-06  2.4967e-05  0:01:16   17
  1884  4.8930e-11  3.2595e-01  2.9178e-01  4.2212e-01  1.6527e-06  2.5075e-05  0:01:07   16
  1885  4.9288e-11  2.2047e-01  1.9981e-01  2.8759e-01  1.6544e-06  2.4943e-05  0:00:56   15
  1886  4.8918e-11  3.2639e-01  2.9221e-01  4.2273e-01  1.6684e-06  2.5098e-05  0:00:50   14
  1887  4.9308e-11  2.2022e-01  1.9957e-01  2.8723e-01  1.6585e-06  2.4933e-05  0:00:43   13
  1888  4.8915e-11  3.2611e-01  2.9193e-01  4.2233e-01  1.6687e-06  2.5098e-05  0:00:39   12
  1889  4.9312e-11  2.2010e-01  1.9946e-01  2.8707e-01  1.6616e-06  2.4920e-05  0:00:33   11
  1890  4.8917e-11  3.2601e-01  2.9184e-01  4.2220e-01  1.6678e-06  2.5075e-05  0:00:30   10

  iter  continuity  x-velocity  y-velocity  z-velocity           k       omega     time/iter
  1891  4.9304e-11  2.2003e-01  1.9940e-01  2.8698e-01  1.6632e-06  2.4922e-05  0:00:27    9
  1892  4.8924e-11  3.2602e-01  2.9184e-01  4.2219e-01  1.6678e-06  2.5087e-05  0:00:22    8
  1893  4.9302e-11  2.2002e-01  1.9939e-01  2.8696e-01  1.6653e-06  2.4923e-05  0:00:20    7
  1894  4.8931e-11  3.2599e-01  2.9182e-01  4.2217e-01  1.6517e-06  2.5047e-05  0:00:16    6
  1895  4.9283e-11  2.2049e-01  1.9982e-01  2.8762e-01  1.6521e-06  2.4928e-05  0:00:14    5
  1896  4.8911e-11  3.2627e-01  2.9208e-01  4.2257e-01  1.6696e-06  2.5108e-05  0:00:10    4
  1897  4.9308e-11  2.2020e-01  1.9954e-01  2.8720e-01  1.6591e-06  2.4929e-05  0:00:09    3
  1898  4.8915e-11  3.2604e-01  2.9187e-01  4.2225e-01  1.6706e-06  2.5091e-05  0:00:05    2
  1899  4.9313e-11  2.2008e-01  1.9944e-01  2.8704e-01  1.6619e-06  2.4914e-05  0:00:03    1
  1900  4.8921e-11  3.2598e-01  2.9181e-01  4.2216e-01  1.6524e-06  2.5062e-05  0:00:00    0
Flow time = 5e-09s, time step = 5

Exchanging Data... done.

COUPLING STEP = 5	 COUPLING ITERATION = 16

  iter  continuity  x-velocity  y-velocity  z-velocity           k       omega     time/iter
  1900  4.8921e-11  3.2598e-01  2.9181e-01  4.2216e-01  1.6524e-06  2.5062e-05  0:00:53   20

Updating mesh at iteration... done.
  1901  4.9282e-11  2.2046e-01  1.9980e-01  2.8758e-01  1.6525e-06  2.5405e-05  0:01:11   19
  1902  4.8910e-11  3.2623e-01  2.9204e-01  4.2251e-01  1.6686e-06  2.5279e-05  0:01:08   18
  1903  4.9305e-11  2.2019e-01  1.9954e-01  2.8719e-01  1.6587e-06  2.4980e-05  0:01:02   17
  1904  4.8913e-11  3.2601e-01  2.9184e-01  4.2221e-01  1.6701e-06  2.5089e-05  0:00:56   16
  1905  4.9308e-11  2.2003e-01  1.9941e-01  2.8698e-01  1.6646e-06  2.4927e-05  0:00:51   15
  1906  4.8941e-11  3.2608e-01  2.9195e-01  4.2228e-01  1.6680e-06  2.5108e-05  0:00:49   14
  1907  4.9310e-11  2.2011e-01  1.9947e-01  2.8707e-01  1.6635e-06  2.4926e-05  0:00:44   13
  1908  4.8932e-11  3.2624e-01  2.9204e-01  4.2250e-01  1.6666e-06  2.5056e-05  0:00:42   12
  1909  4.9301e-11  2.2014e-01  1.9949e-01  2.8712e-01  1.6615e-06  2.4903e-05  0:00:40   11
  1910  4.8925e-11  3.2614e-01  2.9195e-01  4.2237e-01  1.6659e-06  2.5064e-05  0:00:35   10

  iter  continuity  x-velocity  y-velocity  z-velocity           k       omega     time/iter
  1911  4.9300e-11  2.2012e-01  1.9948e-01  2.8710e-01  1.6636e-06  2.4917e-05  0:00:31    9
  1912  4.8925e-11  3.2617e-01  2.9197e-01  4.2240e-01  1.6678e-06  2.5102e-05  0:00:27    8
  1913  4.9304e-11  2.2010e-01  1.9946e-01  2.8706e-01  1.6631e-06  2.4926e-05  0:00:23    7
  1914  4.8926e-11  3.2610e-01  2.9192e-01  4.2232e-01  1.6684e-06  2.5078e-05  0:00:19    6
  1915  4.9306e-11  2.2001e-01  1.9938e-01  2.8694e-01  1.6635e-06  2.4925e-05  0:00:16    5
  1916  4.8925e-11  3.2589e-01  2.9173e-01  4.2203e-01  1.6673e-06  2.5085e-05  0:00:13    4
  1917  4.9302e-11  2.1997e-01  1.9934e-01  2.8689e-01  1.6631e-06  2.4930e-05  0:00:09    3
  1918  4.8927e-11  3.2582e-01  2.9167e-01  4.2194e-01  1.6500e-06  2.5063e-05  0:00:06    2
  1919  4.9278e-11  2.2047e-01  1.9981e-01  2.8760e-01  1.6536e-06  2.4940e-05  0:00:03    1
  1920  4.8916e-11  3.2644e-01  2.9224e-01  4.2280e-01  1.6687e-06  2.5102e-05  0:00:00    0
Flow time = 5e-09s, time step = 5

Exchanging Data... done.

COUPLING STEP = 5	 COUPLING ITERATION = 17

  iter  continuity  x-velocity  y-velocity  z-velocity           k       omega     time/iter
  1920  4.8916e-11  3.2644e-01  2.9224e-01  4.2280e-01  1.6687e-06  2.5102e-05  0:00:58   20

Updating mesh at iteration... done.
  1921  4.9306e-11  2.2024e-01  1.9959e-01  2.8725e-01  1.6585e-06  2.4934e-05  0:01:07   19
  1922  4.8914e-11  3.2619e-01  2.9200e-01  4.2244e-01  1.6691e-06  2.5107e-05  0:01:01   18
  1923  4.9311e-11  2.2009e-01  1.9946e-01  2.8705e-01  1.6631e-06  2.4924e-05  0:00:57   17
  1924  4.8920e-11  3.2599e-01  2.9182e-01  4.2217e-01  1.6540e-06  2.5049e-05  0:00:59   16
  1925  4.9293e-11  2.2043e-01  1.9978e-01  2.8754e-01  1.6559e-06  2.4938e-05  0:00:56   15
  1926  4.8923e-11  3.2627e-01  2.9209e-01  4.2256e-01  1.6743e-06  2.5117e-05  0:00:53   14
  1927  4.9322e-11  2.2021e-01  1.9956e-01  2.8719e-01  1.6592e-06  2.4934e-05  0:00:52   13
  1928  4.8927e-11  3.2615e-01  2.9198e-01  4.2238e-01  1.6680e-06  2.5100e-05  0:00:48   12
  1929  4.9311e-11  2.2012e-01  1.9948e-01  2.8710e-01  1.6620e-06  2.4928e-05  0:00:44   11
  1930  4.8919e-11  3.2608e-01  2.9189e-01  4.2229e-01  1.6680e-06  2.5083e-05  0:00:40   10

  iter  continuity  x-velocity  y-velocity  z-velocity           k       omega     time/iter
  1931  4.9304e-11  2.2005e-01  1.9941e-01  2.8700e-01  1.6626e-06  2.4924e-05  0:00:34    9
  1932  4.8924e-11  3.2605e-01  2.9186e-01  4.2224e-01  1.6516e-06  2.5068e-05  0:00:29    8
  1933  4.9282e-11  2.2050e-01  1.9983e-01  2.8763e-01  1.6547e-06  2.4935e-05  0:00:23    7
  1934  4.8917e-11  3.2638e-01  2.9219e-01  4.2271e-01  1.6533e-06  2.5089e-05  0:00:20    6
  1935  4.9287e-11  2.2063e-01  1.9995e-01  2.8781e-01  1.6505e-06  2.4941e-05  0:00:17    5
  1936  4.8899e-11  3.2632e-01  2.9211e-01  4.2264e-01  1.6684e-06  2.5104e-05  0:00:13    4
  1937  4.9309e-11  2.2028e-01  1.9961e-01  2.8730e-01  1.6578e-06  2.4933e-05  0:00:10    3
  1938  4.8909e-11  3.2617e-01  2.9198e-01  4.2242e-01  1.6573e-06  2.5071e-05  0:00:06    2
  1939  4.9300e-11  2.2044e-01  1.9980e-01  2.8755e-01  1.6563e-06  2.4930e-05  0:00:03    1
  1940  4.8918e-11  3.2622e-01  2.9204e-01  4.2250e-01  1.6734e-06  2.5093e-05  0:00:00    0
Flow time = 5e-09s, time step = 5

Exchanging Data... done.

COUPLING STEP = 5	 COUPLING ITERATION = 18

  iter  continuity  x-velocity  y-velocity  z-velocity           k       omega     time/iter
  1940  4.8918e-11  3.2622e-01  2.9204e-01  4.2250e-01  1.6734e-06  2.5093e-05  0:01:00   20

Updating mesh at iteration... done.
  1941  4.9319e-11  2.2021e-01  1.9956e-01  2.8720e-01  1.6609e-06  2.4922e-05  0:01:08   19
  1942  4.8939e-11  3.2617e-01  2.9202e-01  4.2240e-01  1.6686e-06  2.5112e-05  0:01:03   18
  1943  4.9316e-11  2.2007e-01  1.9944e-01  2.8702e-01  1.6621e-06  2.4932e-05  0:00:58   17
  1944  4.8919e-11  3.2599e-01  2.9182e-01  4.2216e-01  1.6680e-06  2.5075e-05  0:00:50   16
  1945  4.9303e-11  2.2003e-01  1.9939e-01  2.8697e-01  1.6626e-06  2.4918e-05  0:00:46   15
  1946  4.8922e-11  3.2593e-01  2.9177e-01  4.2209e-01  1.6706e-06  2.5080e-05  0:00:40   14
  1947  4.9312e-11  2.1990e-01  1.9928e-01  2.8679e-01  1.6662e-06  2.4939e-05  0:00:38   13
  1948  4.8948e-11  3.2599e-01  2.9187e-01  4.2216e-01  1.6651e-06  2.5078e-05  0:00:35   12
  1949  4.9301e-11  2.2009e-01  1.9945e-01  2.8705e-01  1.6636e-06  2.4908e-05  0:00:30   11
  1950  4.8924e-11  3.2602e-01  2.9184e-01  4.2220e-01  1.6664e-06  2.5094e-05  0:00:28   10

  iter  continuity  x-velocity  y-velocity  z-velocity           k       omega     time/iter
  1951  4.9300e-11  2.2006e-01  1.9942e-01  2.8701e-01  1.6628e-06  2.4931e-05  0:00:24    9
  1952  4.8925e-11  3.2600e-01  2.9182e-01  4.2217e-01  1.6680e-06  2.5080e-05  0:00:22    8
  1953  4.9302e-11  2.2002e-01  1.9938e-01  2.8695e-01  1.6656e-06  2.4927e-05  0:00:18    7
  1954  4.8932e-11  3.2607e-01  2.9188e-01  4.2227e-01  1.6524e-06  2.5062e-05  0:00:16    6
  1955  4.9283e-11  2.2048e-01  1.9981e-01  2.8760e-01  1.6553e-06  2.4942e-05  0:00:13    5
  1956  4.8921e-11  3.2642e-01  2.9224e-01  4.2276e-01  1.6543e-06  2.5100e-05  0:00:10    4
  1957  4.9289e-11  2.2061e-01  1.9994e-01  2.8777e-01  1.6511e-06  2.4939e-05  0:00:07    3
  1958  4.8900e-11  3.2630e-01  2.9209e-01  4.2261e-01  1.6701e-06  2.5109e-05  0:00:05    2
  1959  4.9313e-11  2.2022e-01  1.9956e-01  2.8722e-01  1.6584e-06  2.4939e-05  0:00:03    1
  1960  4.8911e-11  3.2604e-01  2.9187e-01  4.2225e-01  1.6700e-06  2.5099e-05  0:00:00    0
Flow time = 5e-09s, time step = 5

Exchanging Data... done.

COUPLING STEP = 5	 COUPLING ITERATION = 19

  iter  continuity  x-velocity  y-velocity  z-velocity           k       omega     time/iter
  1960  4.8911e-11  3.2604e-01  2.9187e-01  4.2225e-01  1.6700e-06  2.5099e-05  0:00:48   20

Updating mesh at iteration... done.
  1961  4.9313e-11  2.2012e-01  1.9948e-01  2.8709e-01  1.6626e-06  2.4920e-05  0:01:03   19
  1962  4.8921e-11  3.2614e-01  2.9195e-01  4.2237e-01  1.6507e-06  2.5069e-05  0:00:59   18
  1963  4.9280e-11  2.2052e-01  1.9985e-01  2.8766e-01  1.6515e-06  2.4942e-05  0:00:55   17
  1964  4.8908e-11  3.2625e-01  2.9206e-01  4.2255e-01  1.6716e-06  2.5107e-05  0:00:51   16
  1965  4.9316e-11  2.2015e-01  1.9950e-01  2.8712e-01  1.6608e-06  2.4936e-05  0:00:47   15
  1966  4.8929e-11  3.2614e-01  2.9198e-01  4.2236e-01  1.6679e-06  2.5104e-05  0:00:41   14
  1967  4.9310e-11  2.2009e-01  1.9945e-01  2.8705e-01  1.6622e-06  2.4928e-05  0:00:38   13
  1968  4.8920e-11  3.2599e-01  2.9181e-01  4.2216e-01  1.6675e-06  2.5072e-05  0:00:33   12
  1969  4.9300e-11  2.2005e-01  1.9941e-01  2.8700e-01  1.6619e-06  2.4917e-05  0:00:31   11
  1970  4.8922e-11  3.2593e-01  2.9176e-01  4.2208e-01  1.6675e-06  2.5075e-05  0:00:26   10

  iter  continuity  x-velocity  y-velocity  z-velocity           k       omega     time/iter
  1971  4.9300e-11  2.2003e-01  1.9940e-01  2.8698e-01  1.6632e-06  2.4938e-05  0:00:23    9
  1972  4.8928e-11  3.2608e-01  2.9191e-01  4.2228e-01  1.6681e-06  2.5084e-05  0:00:21    8
  1973  4.9302e-11  2.2007e-01  1.9943e-01  2.8702e-01  1.6646e-06  2.4906e-05  0:00:17    7
  1974  4.8927e-11  3.2607e-01  2.9189e-01  4.2228e-01  1.6675e-06  2.5079e-05  0:00:16    6
  1975  4.9299e-11  2.2006e-01  1.9941e-01  2.8701e-01  1.6626e-06  2.4923e-05  0:00:12    5
  1976  4.8924e-11  3.2600e-01  2.9183e-01  4.2218e-01  1.6672e-06  2.5077e-05  0:00:10    4
  1977  4.9299e-11  2.2005e-01  1.9941e-01  2.8700e-01  1.6642e-06  2.4918e-05  0:00:08    3
  1978  4.8926e-11  3.2592e-01  2.9176e-01  4.2208e-01  1.6534e-06  2.5067e-05  0:00:05    2
  1979  4.9289e-11  2.2045e-01  1.9979e-01  2.8756e-01  1.6553e-06  2.4950e-05  0:00:02    1
  1980  4.8919e-11  3.2634e-01  2.9217e-01  4.2266e-01  1.6551e-06  2.5095e-05  0:00:00    0
Flow time = 5e-09s, time step = 5

Exchanging Data... done.

COUPLING STEP = 5	 COUPLING ITERATION = 20

  iter  continuity  x-velocity  y-velocity  z-velocity           k       omega     time/iter
  1980  4.8919e-11  3.2634e-01  2.9217e-01  4.2266e-01  1.6551e-06  2.5095e-05  0:00:52   20

Updating mesh at iteration... done.
  1981  4.9293e-11  2.2057e-01  1.9991e-01  2.8773e-01  1.6542e-06  2.4937e-05  0:01:10   19
  1982  4.8912e-11  3.2639e-01  2.9218e-01  4.2272e-01  1.6732e-06  2.5112e-05  0:01:00   18
  1983  4.9323e-11  2.2028e-01  1.9962e-01  2.8729e-01  1.6586e-06  2.4936e-05  0:00:56   17
  1984  4.8926e-11  3.2624e-01  2.9207e-01  4.2250e-01  1.6693e-06  2.5106e-05  0:00:48   16
  1985  4.9317e-11  2.2009e-01  1.9945e-01  2.8705e-01  1.6615e-06  2.4932e-05  0:00:45   15
  1986  4.8919e-11  3.2604e-01  2.9187e-01  4.2224e-01  1.6694e-06  2.5085e-05  0:00:39   14
  1987  4.9310e-11  2.2000e-01  1.9938e-01  2.8693e-01  1.6574e-06  2.4955e-05  0:00:37   13
  1988  4.8959e-11  3.2470e-01  2.9076e-01  4.2046e-01  1.6552e-06  2.5095e-05  0:00:32   12
  1989  4.9288e-11  2.1993e-01  1.9932e-01  2.8686e-01  1.6643e-06  2.4918e-05  0:00:32   11
  1990  4.8932e-11  3.2589e-01  2.9172e-01  4.2203e-01  1.6671e-06  2.5089e-05  0:00:28   10

  iter  continuity  x-velocity  y-velocity  z-velocity           k       omega     time/iter
  1991  4.9302e-11  2.1998e-01  1.9936e-01  2.8690e-01  1.6638e-06  2.4933e-05  0:00:25    9
  1992  4.8928e-11  3.2588e-01  2.9172e-01  4.2202e-01  1.6497e-06  2.5058e-05  0:00:21    8
  1993  4.9281e-11  2.2050e-01  1.9983e-01  2.8763e-01  1.6525e-06  2.4938e-05  0:00:19    7
  1994  4.8911e-11  3.2629e-01  2.9209e-01  4.2260e-01  1.6693e-06  2.5099e-05  0:00:17    6
  1995  4.9312e-11  2.2016e-01  1.9953e-01  2.8715e-01  1.6598e-06  2.4941e-05  0:00:14    5
  1996  4.8917e-11  3.2600e-01  2.9184e-01  4.2219e-01  1.6701e-06  2.5109e-05  0:00:11    4
  1997  4.9316e-11  2.1997e-01  1.9935e-01  2.8689e-01  1.6637e-06  2.4950e-05  0:00:08    3
  1998  4.8935e-11  3.2600e-01  2.9186e-01  4.2217e-01  1.6669e-06  2.5104e-05  0:00:05    2
  1999  4.9308e-11  2.2002e-01  1.9939e-01  2.8696e-01  1.6637e-06  2.4913e-05  0:00:03    1
  2000  4.8924e-11  3.2584e-01  2.9168e-01  4.2196e-01  1.6680e-06  2.5074e-05  0:00:00    0
Flow time = 5e-09s, time step = 5
Writing "| gzip -2cf > C:\Users\Akash Levy\Documents\NEM-Relay-CAD\ansys\relay_files\dp0\FFF-1\Fluent\FFF-1.2-6-00005.cas.gz"...
Writing temporary file C:\\Users\\AKASHL~1\\AppData\\Local\\Temp\\flntgz-231615 ...
  146837 tetrahedral cells, zone  2, binary.
  283951 triangular interior faces, zone  1, binary.
   11258 triangular wall faces, zone  5, binary.
    8188 triangular wall faces, zone  6, binary.
   29227 nodes, binary.
   29227 node flags, binary.
Done.

Writing "| gzip -2cf > C:\Users\Akash Levy\Documents\NEM-Relay-CAD\ansys\relay_files\dp0\FFF-1\Fluent\FFF-1.2-6-00005.dat.gz"...
Writing temporary file C:\\Users\\AKASHL~1\\AppData\\Local\\Temp\\flntgz-231616 ...
Done.


CALCULATION COMPLETE
Deleting Client...done
Shutting down Server...done
Writing data to C:\\Users\\Akash Levy\\Documents\\NEM-Relay-CAD\\ansys\\relay_files\\dp0\\FFF-1\\Fluent\\FFF-1.2.ip ...
	x-coord
	y-coord
	z-coord
	pressure
	x-velocity
	y-velocity
	z-velocity
	k
	omega
Done.

Performance Timer for 2000 iterations on 1 compute node
  Average wall-clock time per iteration:              2.012 sec
  Global reductions per iteration:                       54 ops
  Global reductions time per iteration:               0.000 sec (0.0%)
  Message count per iteration:                            6 messages
  Data transfer per iteration:                        0.000 MB
  LE solves per iteration:                                3 solves
  LE wall-clock time per iteration:                   0.852 sec (42.3%)
  LE global solves per iteration:                         0 solves
  LE global wall-clock time per iteration:            0.000 sec (0.0%)
  LE global matrix maximum size:                         0
  AMG cycles per iteration:                           3.940 cycles
  Relaxation sweeps per iteration:                      285 sweeps
  Relaxation exchanges per iteration:                     0 exchanges
  LE early protections (stall) per iteration:           0.000 times
  LE early protections (divergence) per iteration:      0.000 times
  Time-step updates per iteration:                     0.00 updates
  Time-step wall-clock time per iteration:            0.049 sec (2.5%)

  Total wall-clock time:                           4023.721 sec

