
 ANSYS Mechanical Enterprise                       


 *------------------------------------------------------------------*
 |                                                                  |
 |   W E L C O M E   T O   T H E   A N S Y S (R)  P R O G R A M     |
 |                                                                  |
 *------------------------------------------------------------------*




 ***************************************************************
 *            ANSYS 2020 R1          LEGAL NOTICES             *
 ***************************************************************
 *                                                             *
 * Copyright 1971-2020 ANSYS, Inc.  All rights reserved.       *
 * Unauthorized use, distribution or duplication is            *
 * prohibited.                                                 *
 *                                                             *
 * Ansys is a registered trademark of ANSYS, Inc. or its       *
 * subsidiaries in the United States or other countries.       *
 * See the ANSYS, Inc. online documentation or the ANSYS, Inc. *
 * documentation CD or online help for the complete Legal      *
 * Notice.                                                     *
 *                                                             *
 ***************************************************************
 *                                                             *
 * THIS ANSYS SOFTWARE PRODUCT AND PROGRAM DOCUMENTATION       *
 * INCLUDE TRADE SECRETS AND CONFIDENTIAL AND PROPRIETARY      *
 * PRODUCTS OF ANSYS, INC., ITS SUBSIDIARIES, OR LICENSORS.    *
 * The software products and documentation are furnished by    *
 * ANSYS, Inc. or its subsidiaries under a software license    *
 * agreement that contains provisions concerning               *
 * non-disclosure, copying, length and nature of use,          *
 * compliance with exporting laws, warranties, disclaimers,    *
 * limitations of liability, and remedies, and other           *
 * provisions.  The software products and documentation may be *
 * used, disclosed, transferred, or copied only in accordance  *
 * with the terms and conditions of that software license      *
 * agreement.                                                  *
 *                                                             *
 * ANSYS, Inc. is a UL registered                              *
 * ISO 9001:2015 company.                                      *
 *                                                             *
 ***************************************************************
 *                                                             *
 * This product is subject to U.S. laws governing export and   *
 * re-export.                                                  *
 *                                                             *
 * For U.S. Government users, except as specifically granted   *
 * by the ANSYS, Inc. software license agreement, the use,     *
 * duplication, or disclosure by the United States Government  *
 * is subject to restrictions stated in the ANSYS, Inc.        *
 * software license agreement and FAR 12.212 (for non-DOD      *
 * licenses).                                                  *
 *                                                             *
 ***************************************************************

 2020 R1 
     
 Point Releases and Patches installed:   
     
 ANSYS, Inc. Products 2020 R1
 SpaceClaim 2020 R1  
 AIM 2020 R1 
 Live (includes SpaceClaim) 2020 R1  
 Autodyn 2020 R1 
 LS-DYNA 2020 R1 
 CFX (includes CFD-Post) 2020 R1 
 Chemkin 2020 R1 
 EnSight 2020 R1 
 FENSAP-ICE 2020 R1  
 Fluent (includes CFD-Post) 2020 R1  
 Forte 2020 R1   
 Polyflow (includes CFD-Post) 2020 R1
 TurboGrid 2020 R1   
 ICEM CFD 2020 R1
 Aqwa 2020 R1
 Customization Files for User Programmable Features 2020 R1  
 Mechanical Products 2020 R1 
 Additive 2020 R1
 ANSYS Sherlock 2020 R1  
 Icepak (includes CFD-Post) 2020 R1  
 ACIS Geometry Interface 2020 R1 
 AutoCAD Geometry Interface 2020 R1  
 Catia, Version 4 Geometry Interface 2020 R1 
 Catia, Version 5 Geometry Interface 2020 R1 
 Catia, Version 6 Geometry Interface 2020 R1 
 Creo Elements/Direct Modeling Geometry Interface 2020 R1
 Creo Parametric Geometry Interface 2020 R1  
 Inventor Geometry Interface 2020 R1 
 JTOpen Geometry Interface 2020 R1   
 NX Geometry Interface 2020 R1   
 Parasolid Geometry Interface  2020 R1   
 Solid Edge Geometry Interface 2020 R1   
 SOLIDWORKS Geometry Interface 2020 R1   
 ANSYS, Inc. License Manager 2020 R1 


          *****  ANSYS COMMAND LINE ARGUMENTS  *****
  BATCH MODE REQUESTED (-b)    = NOLIST
  INPUT FILE COPY MODE (-c)    = COPY
  DISTRIBUTED MEMORY PARALLEL REQUESTED
       2 PARALLEL PROCESSES REQUESTED WITH SINGLE THREAD PER PROCESS
    TOTAL OF     2 CORES REQUESTED
  INPUT FILE NAME              = CONIN$
  OUTPUT FILE NAME             = C:\Users\Akash Levy\Documents\NEM-Relay-CAD\ansys\_ProjectScratch\ScrDC18\file1.out
  START-UP FILE MODE           = NOREAD
  STOP FILE MODE               = NOREAD

 RELEASE= 2020 R1              BUILD= 20.1      UP20191203   VERSION=WINDOWS x64 
 CURRENT JOBNAME=file1  08:29:37  APR 16, 2020 CP=      0.016


 *****  ANSYS SOLUTION ROUTINE  *****

 PRINTOUT RESUMED BY /GOP

 FINISH SOLUTION PROCESSING


 ***** ROUTINE COMPLETED *****  CP =         0.156



 *****  ANSYS SOLUTION ROUTINE  *****

                      L O A D   S T E P   O P T I O N S

   LOAD STEP NUMBER. . . . . . . . . . . . . . . .     1
   TIME AT END OF THE LOAD STEP. . . . . . . . . . 0.15000E-06
   AUTOMATIC TIME STEPPING . . . . . . . . . . . .    ON
      INITIAL NUMBER OF SUBSTEPS . . . . . . . . .    50
      MAXIMUM NUMBER OF SUBSTEPS . . . . . . . . .   100
      MINIMUM NUMBER OF SUBSTEPS . . . . . . . . .    10
   MAXIMUM NUMBER OF EQUILIBRIUM ITERATIONS. . . .    25
   STEP CHANGE BOUNDARY CONDITIONS . . . . . . . .   YES
   TRANSIENT (INERTIA) EFFECTS
      STRUCTURAL DOFS. . . . . . . . . . . . . . .    ON
      ELECTRIC DOFS. . . . . . . . . . . . . . . .    ON
   TRANSIENT INTEGRATION PARAMETERS
      GAMMA. . . . . . . . . . . . . . . . . . . . 0.10000    
      ALPHA. . . . . . . . . . . . . . . . . . . . 0.30250    
      DELTA. . . . . . . . . . . . . . . . . . . . 0.60000    
      USING HHT TIME INTEGRATION
      ALPHAF . . . . . . . . . . . . . . . . . . . 0.10000    
      ALPHAM . . . . . . . . . . . . . . . . . . .  0.0000    
      THETA. . . . . . . . . . . . . . . . . . . . 0.50000    
      OSCILLATION LIMIT CRITERION. . . . . . . . . 0.50000    
      TOLERANCE. . . . . . . . . . . . . . . . . . 0.20000    
   TERMINATE ANALYSIS IF NOT CONVERGED . . . . . .YES (EXIT)  
   CONVERGENCE CONTROLS. . . . . . . . . . . . . .USE DEFAULTS
   PRINT OUTPUT CONTROLS . . . . . . . . . . . . .NO PRINTOUT
   DATABASE OUTPUT CONTROLS
      ITEM     FREQUENCY   COMPONENT
       ALL       NONE               
      NSOL        ALL               
      RSOL        ALL               
      EANG        ALL               
      ETMP        ALL               
      VENG        ALL               
      STRS        ALL               
      EPEL        ALL               
      EPPL        ALL               
      CONT        ALL               
      V           ALL               
      A           ALL               


 *** NOTE ***                            CP =       0.703   TIME= 08:30:03
 Symmetric Deformable- deformable contact pair identified by real        
 constant set 16 and contact element type 16 has been set up.  The       
 companion pair has real constant set ID 17.  Both pairs should have     
 the same behavior.                                                      
 ANSYS will keep the current pair and deactivate its companion pair,     
 resulting in asymmetric contact.                                        
 Small sliding logic is assumed
 Contact algorithm: Augmented Lagrange method
 Contact detection at: Gauss integration point
 Contact stiffness factor FKN                  1.0000    
 The resulting initial contact stiffness      0.24481E+20
 Default penetration tolerance factor FTOLN   0.10000    
 The resulting penetration tolerance          0.11846E-07
 Default opening contact stiffness OPSF will be used.
 Default tangent stiffness factor FKT          1.0000    
 Default elastic slip factor SLTOL            0.50000E-02
 The resulting elastic slip tolerance         0.10217E-08
 Update contact stiffness at each iteration
 Default Max. friction stress TAUMAX          0.10000E+21
 Average contact surface length               0.20433E-06
 Average contact pair depth                   0.11846E-06
 Default pinball region factor PINB           0.50000    
 The resulting pinball region                 0.59228E-07
 Initial penetration/gap is excluded.
 Bonded contact (always) is defined.

 *** NOTE ***                            CP =       0.703   TIME= 08:30:03
 Max.  Initial penetration 1.32348898E-23 was detected between contact   
 element 130839 and target element 133064.                               
 ****************************************
  

 *** NOTE ***                            CP =       0.703   TIME= 08:30:03
 Symmetric Deformable- deformable contact pair identified by real        
 constant set 17 and contact element type 16 has been set up.  The       
 companion pair has real constant set ID 16.  Both pairs should have     
 the same behavior.                                                      
 ANSYS will deactivate the current pair and keep its companion pair,     
 resulting in asymmetric contact.                                        
 Small sliding logic is assumed
 Contact algorithm: Augmented Lagrange method
 Contact detection at: Gauss integration point
 Contact stiffness factor FKN                  1.0000    
 The resulting initial contact stiffness      0.24481E+20
 Default penetration tolerance factor FTOLN   0.10000    
 The resulting penetration tolerance          0.58110E-08
 Default opening contact stiffness OPSF will be used.
 Default tangent stiffness factor FKT          1.0000    
 Default elastic slip factor SLTOL            0.50000E-02
 The resulting elastic slip tolerance         0.91234E-09
 Update contact stiffness at each iteration
 Default Max. friction stress TAUMAX          0.10000E+21
 Average contact surface length               0.18247E-06
 Average contact pair depth                   0.58110E-07
 Default pinball region factor PINB           0.50000    
 The resulting pinball region                 0.29055E-07
 Initial penetration/gap is excluded.
 Bonded contact (always) is defined.

 *** NOTE ***                            CP =       0.703   TIME= 08:30:03
 Max.  Initial penetration 2.64697796E-23 was detected between contact   
 element 131982 and target element 130153.                               
 ****************************************
  

 *** NOTE ***                            CP =       0.703   TIME= 08:30:03
 Symmetric Deformable- deformable contact pair identified by real        
 constant set 20 and contact element type 20 has been set up.  The       
 companion pair has real constant set ID 21.  Both pairs should have     
 the same behavior.                                                      
 ANSYS will keep the current pair and deactivate its companion pair,     
 resulting in asymmetric contact.                                        
 Small sliding logic is assumed
 Contact algorithm: Augmented Lagrange method
 Contact detection at: Gauss integration point
 Contact stiffness factor FKN                  1.0000    
 The resulting initial contact stiffness      0.11720E+21
 Default penetration tolerance factor FTOLN   0.10000    
 The resulting penetration tolerance          0.30577E-08
 Default opening contact stiffness OPSF will be used.
 Default tangent stiffness factor FKT          1.0000    
 Default elastic slip factor SLTOL            0.50000E-02
 The resulting elastic slip tolerance         0.44472E-09
 Update contact stiffness at each iteration
 Default Max. friction stress TAUMAX          0.10000E+21
 Average contact surface length               0.88944E-07
 Average contact pair depth                   0.30577E-07
 Default pinball region factor PINB           0.50000    
 The resulting pinball region                 0.15289E-07
 Initial penetration/gap is excluded.
 Bonded contact (always) is defined.

 *** NOTE ***                            CP =       0.703   TIME= 08:30:03
 Max.  Initial penetration 0 was detected between contact element 133714 
 and target element 133795.                                              
 ****************************************
  

 *** NOTE ***                            CP =       0.703   TIME= 08:30:03
 Symmetric Deformable- deformable contact pair identified by real        
 constant set 21 and contact element type 20 has been set up.  The       
 companion pair has real constant set ID 20.  Both pairs should have     
 the same behavior.                                                      
 ANSYS will deactivate the current pair and keep its companion pair,     
 resulting in asymmetric contact.                                        
 Small sliding logic is assumed
 Contact algorithm: Augmented Lagrange method
 Contact detection at: Gauss integration point
 Contact stiffness factor FKN                  1.0000    
 The resulting initial contact stiffness      0.11720E+21
 Default penetration tolerance factor FTOLN   0.10000    
 The resulting penetration tolerance          0.63993E-08
 Default opening contact stiffness OPSF will be used.
 Default tangent stiffness factor FKT          1.0000    
 Default elastic slip factor SLTOL            0.50000E-02
 The resulting elastic slip tolerance         0.10383E-08
 Update contact stiffness at each iteration
 Default Max. friction stress TAUMAX          0.10000E+21
 Average contact surface length               0.20766E-06
 Average contact pair depth                   0.63993E-07
 Default pinball region factor PINB           0.50000    
 The resulting pinball region                 0.31996E-07
 Initial penetration/gap is excluded.
 Bonded contact (always) is defined.

 *** NOTE ***                            CP =       0.703   TIME= 08:30:03
 Max.  Initial penetration 0 was detected between contact element 133770 
 and target element 133682.                                              
 ****************************************
  

 *** NOTE ***                            CP =       0.703   TIME= 08:30:03
 Symmetric Deformable- deformable contact pair identified by real        
 constant set 24 and contact element type 24 has been set up.  The       
 companion pair has real constant set ID 25.  Both pairs should have     
 the same behavior.                                                      
 ANSYS will keep the current pair and deactivate its companion pair,     
 resulting in asymmetric contact.                                        
 Small sliding logic is assumed
 Contact algorithm: Augmented Lagrange method
 Contact detection at: Gauss integration point
 Contact stiffness factor FKN                  1.0000    
 The resulting initial contact stiffness      0.11745E+21
 Default penetration tolerance factor FTOLN   0.10000    
 The resulting penetration tolerance          0.30577E-08
 Default opening contact stiffness OPSF will be used.
 Default tangent stiffness factor FKT          1.0000    
 Default elastic slip factor SLTOL            0.50000E-02
 The resulting elastic slip tolerance         0.44472E-09
 Update contact stiffness at each iteration
 Default Max. friction stress TAUMAX          0.10000E+21
 Average contact surface length               0.88944E-07
 Average contact pair depth                   0.30577E-07
 Default pinball region factor PINB           0.50000    
 The resulting pinball region                 0.15289E-07
 Initial penetration/gap is excluded.
 Bonded contact (always) is defined.

 *** NOTE ***                            CP =       0.703   TIME= 08:30:03
 Max.  Initial penetration 0 was detected between contact element 134012 
 and target element 134103.                                              
 ****************************************
  

 *** NOTE ***                            CP =       0.703   TIME= 08:30:03
 Symmetric Deformable- deformable contact pair identified by real        
 constant set 25 and contact element type 24 has been set up.  The       
 companion pair has real constant set ID 24.  Both pairs should have     
 the same behavior.                                                      
 ANSYS will deactivate the current pair and keep its companion pair,     
 resulting in asymmetric contact.                                        
 Small sliding logic is assumed
 Contact algorithm: Augmented Lagrange method
 Contact detection at: Gauss integration point
 Contact stiffness factor FKN                  1.0000    
 The resulting initial contact stiffness      0.11745E+21
 Default penetration tolerance factor FTOLN   0.10000    
 The resulting penetration tolerance          0.63857E-08
 Default opening contact stiffness OPSF will be used.
 Default tangent stiffness factor FKT          1.0000    
 Default elastic slip factor SLTOL            0.50000E-02
 The resulting elastic slip tolerance         0.10413E-08
 Update contact stiffness at each iteration
 Default Max. friction stress TAUMAX          0.10000E+21
 Average contact surface length               0.20827E-06
 Average contact pair depth                   0.63857E-07
 Default pinball region factor PINB           0.50000    
 The resulting pinball region                 0.31929E-07
 Initial penetration/gap is excluded.
 Bonded contact (always) is defined.

 *** NOTE ***                            CP =       0.703   TIME= 08:30:03
 Max.  Initial penetration 0 was detected between contact element 134068 
 and target element 133978.                                              
 ****************************************
  

 *** NOTE ***                            CP =       0.703   TIME= 08:30:03
 Symmetric Deformable- deformable contact pair identified by real        
 constant set 26 and contact element type 26 has been set up.  The       
 companion pair has real constant set ID 27.  Both pairs should have     
 the same behavior.                                                      
 ANSYS will keep the current pair and deactivate its companion pair,     
 resulting in asymmetric contact.                                        
 Small sliding logic is assumed
 Contact algorithm: Augmented Lagrange method
 Contact detection at: Gauss integration point
 Contact stiffness factor FKN                  1.0000    
 The resulting initial contact stiffness      0.12912E+21
 Default penetration tolerance factor FTOLN   0.10000    
 The resulting penetration tolerance          0.27337E-08
 Default opening contact stiffness OPSF will be used.
 Default tangent stiffness factor FKT          1.0000    
 Default elastic slip factor SLTOL            0.50000E-02
 The resulting elastic slip tolerance         0.43513E-09
 Update contact stiffness at each iteration
 Default Max. friction stress TAUMAX          0.10000E+21
 Average contact surface length               0.87026E-07
 Average contact pair depth                   0.27337E-07
 Default pinball region factor PINB           0.50000    
 The resulting pinball region                 0.13669E-07
 Initial penetration/gap is excluded.
 Bonded contact (always) is defined.

 *** NOTE ***                            CP =       0.703   TIME= 08:30:03
 Max.  Initial penetration 0 was detected between contact element 134168 
 and target element 134298.                                              
 ****************************************
  

 *** NOTE ***                            CP =       0.703   TIME= 08:30:03
 Symmetric Deformable- deformable contact pair identified by real        
 constant set 27 and contact element type 26 has been set up.  The       
 companion pair has real constant set ID 26.  Both pairs should have     
 the same behavior.                                                      
 ANSYS will deactivate the current pair and keep its companion pair,     
 resulting in asymmetric contact.                                        
 Small sliding logic is assumed
 Contact algorithm: Augmented Lagrange method
 Contact detection at: Gauss integration point
 Contact stiffness factor FKN                  1.0000    
 The resulting initial contact stiffness      0.12912E+21
 Default penetration tolerance factor FTOLN   0.10000    
 The resulting penetration tolerance          0.58086E-08
 Default opening contact stiffness OPSF will be used.
 Default tangent stiffness factor FKT          1.0000    
 Default elastic slip factor SLTOL            0.50000E-02
 The resulting elastic slip tolerance         0.90035E-09
 Update contact stiffness at each iteration
 Default Max. friction stress TAUMAX          0.10000E+21
 Average contact surface length               0.18007E-06
 Average contact pair depth                   0.58086E-07
 Default pinball region factor PINB           0.50000    
 The resulting pinball region                 0.29043E-07
 Initial penetration/gap is excluded.
 Bonded contact (always) is defined.

 *** NOTE ***                            CP =       0.703   TIME= 08:30:03
 Max.  Initial penetration 0 was detected between contact element 134220 
 and target element 134155.                                              
 ****************************************
  

 *** NOTE ***                            CP =       0.703   TIME= 08:30:03
 Symmetric Deformable- deformable contact pair identified by real        
 constant set 30 and contact element type 30 has been set up.  The       
 companion pair has real constant set ID 31.  Both pairs should have     
 the same behavior.                                                      
 ANSYS will keep the current pair and deactivate its companion pair,     
 resulting in asymmetric contact.                                        
 Small sliding logic is assumed
 Contact algorithm: Augmented Lagrange method
 Contact detection at: Gauss integration point
 Contact stiffness factor FKN                  1.0000    
 The resulting initial contact stiffness      0.12743E+21
 Default penetration tolerance factor FTOLN   0.10000    
 The resulting penetration tolerance          0.26426E-08
 Default opening contact stiffness OPSF will be used.
 Default tangent stiffness factor FKT          1.0000    
 Default elastic slip factor SLTOL            0.50000E-02
 The resulting elastic slip tolerance         0.40016E-09
 Update contact stiffness at each iteration
 Default Max. friction stress TAUMAX          0.10000E+21
 Average contact surface length               0.80032E-07
 Average contact pair depth                   0.26426E-07
 Default pinball region factor PINB           0.50000    
 The resulting pinball region                 0.13213E-07
 Initial penetration/gap is excluded.
 Bonded contact (always) is defined.

 *** NOTE ***                            CP =       0.703   TIME= 08:30:03
 Max.  Initial penetration 0 was detected between contact element 134544 
 and target element 134648.                                              
 ****************************************
  

 *** NOTE ***                            CP =       0.703   TIME= 08:30:03
 Symmetric Deformable- deformable contact pair identified by real        
 constant set 31 and contact element type 30 has been set up.  The       
 companion pair has real constant set ID 30.  Both pairs should have     
 the same behavior.                                                      
 ANSYS will deactivate the current pair and keep its companion pair,     
 resulting in asymmetric contact.                                        
 Small sliding logic is assumed
 Contact algorithm: Augmented Lagrange method
 Contact detection at: Gauss integration point
 Contact stiffness factor FKN                  1.0000    
 The resulting initial contact stiffness      0.12743E+21
 Default penetration tolerance factor FTOLN   0.10000    
 The resulting penetration tolerance          0.58854E-08
 Default opening contact stiffness OPSF will be used.
 Default tangent stiffness factor FKT          1.0000    
 Default elastic slip factor SLTOL            0.50000E-02
 The resulting elastic slip tolerance         0.92742E-09
 Update contact stiffness at each iteration
 Default Max. friction stress TAUMAX          0.10000E+21
 Average contact surface length               0.18548E-06
 Average contact pair depth                   0.58854E-07
 Default pinball region factor PINB           0.50000    
 The resulting pinball region                 0.29427E-07
 Initial penetration/gap is excluded.
 Bonded contact (always) is defined.

 *** NOTE ***                            CP =       0.703   TIME= 08:30:03
 Max.  Initial penetration 0 was detected between contact element 134602 
 and target element 134513.                                              
 ****************************************
  

 *** NOTE ***                            CP =       0.703   TIME= 08:30:03
 Symmetric Deformable- deformable contact pair identified by real        
 constant set 34 and contact element type 34 has been set up.  The       
 companion pair has real constant set ID 35.  Both pairs should have     
 the same behavior.                                                      
 ANSYS will keep the current pair and deactivate its companion pair,     
 resulting in asymmetric contact.                                        
 Small sliding logic is assumed
 Contact algorithm: Augmented Lagrange method
 Contact detection at: Gauss integration point
 Contact stiffness factor FKN                  1.0000    
 The resulting initial contact stiffness      0.58000E+20
 Default penetration tolerance factor FTOLN   0.10000    
 The resulting penetration tolerance          0.50000E-08
 Default opening contact stiffness OPSF will be used.
 Default tangent stiffness factor FKT          1.0000    
 Default elastic slip factor SLTOL            0.50000E-02
 The resulting elastic slip tolerance         0.33333E-09
 Update contact stiffness at each iteration
 Default Max. friction stress TAUMAX          0.10000E+21
 Average contact surface length               0.66667E-07
 Average contact pair depth                   0.50000E-07
 Default pinball region factor PINB           0.50000    
 The resulting pinball region                 0.25000E-07
 Initial penetration/gap is excluded.
 Bonded contact (always) is defined.

 *** NOTE ***                            CP =       0.703   TIME= 08:30:03
 Max.  Initial penetration 0 was detected between contact element 134906 
 and target element 134970.                                              
 ****************************************
  

 *** NOTE ***                            CP =       0.703   TIME= 08:30:03
 Symmetric Deformable- deformable contact pair identified by real        
 constant set 35 and contact element type 34 has been set up.  The       
 companion pair has real constant set ID 34.  Both pairs should have     
 the same behavior.                                                      
 ANSYS will deactivate the current pair and keep its companion pair,     
 resulting in asymmetric contact.                                        
 Small sliding logic is assumed
 Contact algorithm: Augmented Lagrange method
 Contact detection at: Gauss integration point
 Contact stiffness factor FKN                  1.0000    
 The resulting initial contact stiffness      0.58000E+20
 Default penetration tolerance factor FTOLN   0.10000    
 The resulting penetration tolerance          0.67128E-08
 Default opening contact stiffness OPSF will be used.
 Default tangent stiffness factor FKT          1.0000    
 Default elastic slip factor SLTOL            0.50000E-02
 The resulting elastic slip tolerance         0.10995E-08
 Update contact stiffness at each iteration
 Default Max. friction stress TAUMAX          0.10000E+21
 Average contact surface length               0.21990E-06
 Average contact pair depth                   0.67128E-07
 Default pinball region factor PINB           0.50000    
 The resulting pinball region                 0.33564E-07
 Initial penetration/gap is excluded.
 Bonded contact (always) is defined.

 *** NOTE ***                            CP =       0.703   TIME= 08:30:03
 Max.  Initial penetration 0 was detected between contact element 134943 
 and target element 134895.                                              
 ****************************************
  

 *** NOTE ***                            CP =       0.703   TIME= 08:30:03
 Symmetric Deformable- deformable contact pair identified by real        
 constant set 38 and contact element type 38 has been set up.  The       
 companion pair has real constant set ID 39.  Both pairs should have     
 the same behavior.                                                      
 ANSYS will keep the current pair and deactivate its companion pair,     
 resulting in asymmetric contact.                                        
 Small sliding logic is assumed
 Contact algorithm: Augmented Lagrange method
 Contact detection at: Gauss integration point
 Contact stiffness factor FKN                  1.0000    
 The resulting initial contact stiffness      0.58000E+20
 Default penetration tolerance factor FTOLN   0.10000    
 The resulting penetration tolerance          0.50000E-08
 Default opening contact stiffness OPSF will be used.
 Default tangent stiffness factor FKT          1.0000    
 Default elastic slip factor SLTOL            0.50000E-02
 The resulting elastic slip tolerance         0.33333E-09
 Update contact stiffness at each iteration
 Default Max. friction stress TAUMAX          0.10000E+21
 Average contact surface length               0.66667E-07
 Average contact pair depth                   0.50000E-07
 Default pinball region factor PINB           0.50000    
 The resulting pinball region                 0.25000E-07
 Initial penetration/gap is excluded.
 Bonded contact (always) is defined.

 *** NOTE ***                            CP =       0.703   TIME= 08:30:03
 Max.  Initial penetration 0 was detected between contact element 135096 
 and target element 135163.                                              
 ****************************************
  

 *** NOTE ***                            CP =       0.703   TIME= 08:30:03
 Symmetric Deformable- deformable contact pair identified by real        
 constant set 39 and contact element type 38 has been set up.  The       
 companion pair has real constant set ID 38.  Both pairs should have     
 the same behavior.                                                      
 ANSYS will deactivate the current pair and keep its companion pair,     
 resulting in asymmetric contact.                                        
 Small sliding logic is assumed
 Contact algorithm: Augmented Lagrange method
 Contact detection at: Gauss integration point
 Contact stiffness factor FKN                  1.0000    
 The resulting initial contact stiffness      0.58000E+20
 Default penetration tolerance factor FTOLN   0.10000    
 The resulting penetration tolerance          0.70820E-08
 Default opening contact stiffness OPSF will be used.
 Default tangent stiffness factor FKT          1.0000    
 Default elastic slip factor SLTOL            0.50000E-02
 The resulting elastic slip tolerance         0.11499E-08
 Update contact stiffness at each iteration
 Default Max. friction stress TAUMAX          0.10000E+21
 Average contact surface length               0.22998E-06
 Average contact pair depth                   0.70820E-07
 Default pinball region factor PINB           0.50000    
 The resulting pinball region                 0.35410E-07
 Initial penetration/gap is excluded.
 Bonded contact (always) is defined.

 *** NOTE ***                            CP =       0.703   TIME= 08:30:03
 Max.  Initial penetration 0 was detected between contact element 135138 
 and target element 135076.                                              
 ****************************************
  

 *** NOTE ***                            CP =       0.703   TIME= 08:30:03
 Symmetric Deformable- deformable contact pair identified by real        
 constant set 42 and contact element type 42 has been set up.  The       
 companion pair has real constant set ID 43.  Both pairs should have     
 the same behavior.                                                      
 ANSYS will keep the current pair and deactivate its companion pair,     
 resulting in asymmetric contact.                                        
 Small sliding logic is assumed
 Contact algorithm: Augmented Lagrange method
 Contact detection at: Gauss integration point
 Contact stiffness factor FKN                  1.0000    
 The resulting initial contact stiffness      0.58000E+20
 Default penetration tolerance factor FTOLN   0.10000    
 The resulting penetration tolerance          0.50000E-08
 Default opening contact stiffness OPSF will be used.
 Default tangent stiffness factor FKT          1.0000    
 Default elastic slip factor SLTOL            0.50000E-02
 The resulting elastic slip tolerance         0.33333E-09
 Update contact stiffness at each iteration
 Default Max. friction stress TAUMAX          0.10000E+21
 Average contact surface length               0.66667E-07
 Average contact pair depth                   0.50000E-07
 Default pinball region factor PINB           0.50000    
 The resulting pinball region                 0.25000E-07
 Initial penetration/gap is excluded.
 Bonded contact (always) is defined.

 *** NOTE ***                            CP =       0.703   TIME= 08:30:03
 Max.  Initial penetration 0 was detected between contact element 135286 
 and target element 135355.                                              
 ****************************************
  

 *** NOTE ***                            CP =       0.703   TIME= 08:30:03
 Symmetric Deformable- deformable contact pair identified by real        
 constant set 43 and contact element type 42 has been set up.  The       
 companion pair has real constant set ID 42.  Both pairs should have     
 the same behavior.                                                      
 ANSYS will deactivate the current pair and keep its companion pair,     
 resulting in asymmetric contact.                                        
 Small sliding logic is assumed
 Contact algorithm: Augmented Lagrange method
 Contact detection at: Gauss integration point
 Contact stiffness factor FKN                  1.0000    
 The resulting initial contact stiffness      0.58000E+20
 Default penetration tolerance factor FTOLN   0.10000    
 The resulting penetration tolerance          0.70820E-08
 Default opening contact stiffness OPSF will be used.
 Default tangent stiffness factor FKT          1.0000    
 Default elastic slip factor SLTOL            0.50000E-02
 The resulting elastic slip tolerance         0.11499E-08
 Update contact stiffness at each iteration
 Default Max. friction stress TAUMAX          0.10000E+21
 Average contact surface length               0.22998E-06
 Average contact pair depth                   0.70820E-07
 Default pinball region factor PINB           0.50000    
 The resulting pinball region                 0.35410E-07
 Initial penetration/gap is excluded.
 Bonded contact (always) is defined.

 *** NOTE ***                            CP =       0.703   TIME= 08:30:03
 Max.  Initial penetration 0 was detected between contact element 135328 
 and target element 135258.                                              
 ****************************************
  

 *** NOTE ***                            CP =       0.703   TIME= 08:30:03
 Symmetric Deformable- deformable contact pair identified by real        
 constant set 46 and contact element type 46 has been set up.  The       
 companion pair has real constant set ID 47.  Both pairs should have     
 the same behavior.                                                      
 ANSYS will keep the current pair and deactivate its companion pair,     
 resulting in asymmetric contact.                                        
 Small sliding logic is assumed
 Contact algorithm: Augmented Lagrange method
 Contact detection at: Gauss integration point
 Contact stiffness factor FKN                  1.0000    
 The resulting initial contact stiffness      0.58000E+20
 Default penetration tolerance factor FTOLN   0.10000    
 The resulting penetration tolerance          0.50000E-08
 Default opening contact stiffness OPSF will be used.
 Default tangent stiffness factor FKT          1.0000    
 Default elastic slip factor SLTOL            0.50000E-02
 The resulting elastic slip tolerance         0.33333E-09
 Update contact stiffness at each iteration
 Default Max. friction stress TAUMAX          0.10000E+21
 Average contact surface length               0.66667E-07
 Average contact pair depth                   0.50000E-07
 Default pinball region factor PINB           0.50000    
 The resulting pinball region                 0.25000E-07
 Initial penetration/gap is excluded.
 Bonded contact (always) is defined.

 *** NOTE ***                            CP =       0.703   TIME= 08:30:03
 Max.  Initial penetration 0 was detected between contact element 135476 
 and target element 135548.                                              
 ****************************************
  

 *** NOTE ***                            CP =       0.703   TIME= 08:30:03
 Symmetric Deformable- deformable contact pair identified by real        
 constant set 47 and contact element type 46 has been set up.  The       
 companion pair has real constant set ID 46.  Both pairs should have     
 the same behavior.                                                      
 ANSYS will deactivate the current pair and keep its companion pair,     
 resulting in asymmetric contact.                                        
 Small sliding logic is assumed
 Contact algorithm: Augmented Lagrange method
 Contact detection at: Gauss integration point
 Contact stiffness factor FKN                  1.0000    
 The resulting initial contact stiffness      0.58000E+20
 Default penetration tolerance factor FTOLN   0.10000    
 The resulting penetration tolerance          0.68686E-08
 Default opening contact stiffness OPSF will be used.
 Default tangent stiffness factor FKT          1.0000    
 Default elastic slip factor SLTOL            0.50000E-02
 The resulting elastic slip tolerance         0.11217E-08
 Update contact stiffness at each iteration
 Default Max. friction stress TAUMAX          0.10000E+21
 Average contact surface length               0.22435E-06
 Average contact pair depth                   0.68686E-07
 Default pinball region factor PINB           0.50000    
 The resulting pinball region                 0.34343E-07
 Initial penetration/gap is excluded.
 Bonded contact (always) is defined.

 *** NOTE ***                            CP =       0.703   TIME= 08:30:03
 Max.  Initial penetration 0 was detected between contact element 135517 
 and target element 135459.                                              
 ****************************************
  

 *** NOTE ***                            CP =       0.703   TIME= 08:30:03
 Symmetric Deformable- deformable contact pair identified by real        
 constant set 56 and contact element type 56 has been set up.  The       
 companion pair has real constant set ID 57.  Both pairs should have     
 the same behavior.                                                      
 ANSYS will keep the current pair and deactivate its companion pair,     
 resulting in asymmetric contact.                                        
 Contact algorithm: Augmented Lagrange method
 Contact detection at: Gauss integration point
 Contact stiffness factor FKN                 0.10000    
 The resulting initial contact stiffness      0.54167E+19
 Default penetration tolerance factor FTOLN   0.10000    
 The resulting penetration tolerance          0.53590E-08
 Frictionless contact pair is defined
 Update contact stiffness at each iteration
 Average contact surface length               0.65675E-07
 Average contact pair depth                   0.53590E-07
 Default pinball region factor PINB            2.0000    
 The resulting pinball region                 0.10718E-06
 *WARNING*: Initial penetration is included.

 *** NOTE ***                            CP =       0.703   TIME= 08:30:03
 Min.  Initial gap 5.115551376E-08 was detected between contact element  
 138732 and target element 139015.                                       
 You may move entire target surface by: x= -5.860018412E-09, y=          
 6.589515153E-25, z= 5.081876398E-08, to bring it in contact.            
 ****************************************
  

 *** NOTE ***                            CP =       0.703   TIME= 08:30:03
 Symmetric Deformable- deformable contact pair identified by real        
 constant set 57 and contact element type 56 has been set up.  The       
 companion pair has real constant set ID 56.  Both pairs should have     
 the same behavior.                                                      
 ANSYS will deactivate the current pair and keep its companion pair,     
 resulting in asymmetric contact.                                        
 Contact algorithm: Augmented Lagrange method
 Contact detection at: Gauss integration point
 Contact stiffness factor FKN                 0.10000    
 The resulting initial contact stiffness      0.54167E+19
 Default penetration tolerance factor FTOLN   0.10000    
 The resulting penetration tolerance          0.13846E-07
 Frictionless contact pair is defined
 Update contact stiffness at each iteration
 Average contact surface length               0.46154E-06
 Average contact pair depth                   0.13846E-06
 Default pinball region factor PINB            2.0000    
 The resulting pinball region                 0.27692E-06
 *WARNING*: Initial penetration is included.

 *** NOTE ***                            CP =       0.703   TIME= 08:30:03
 No contact was detected for this contact pair.                          
 ****************************************
  

 *** NOTE ***                            CP =       0.703   TIME= 08:30:03
 Symmetric Deformable- deformable contact pair identified by real        
 constant set 58 and contact element type 58 has been set up.  The       
 companion pair has real constant set ID 59.  Both pairs should have     
 the same behavior.                                                      
 ANSYS will keep the current pair and deactivate its companion pair,     
 resulting in asymmetric contact.                                        
 Contact algorithm: Augmented Lagrange method
 Contact detection at: Gauss integration point
 Contact stiffness factor FKN                 0.10000    
 The resulting initial contact stiffness      0.54167E+19
 Default penetration tolerance factor FTOLN   0.10000    
 The resulting penetration tolerance          0.53590E-08
 Frictionless contact pair is defined
 Update contact stiffness at each iteration
 Average contact surface length               0.66063E-07
 Average contact pair depth                   0.53590E-07
 Default pinball region factor PINB            2.0000    
 The resulting pinball region                 0.10718E-06
 *WARNING*: Initial penetration is included.

 *** NOTE ***                            CP =       0.703   TIME= 08:30:03
 Min.  Initial gap 5.115551376E-08 was detected between contact element  
 139109 and target element 139373.                                       
 You may move entire target surface by: x= 5.860018412E-09, y=           
 -6.589515153E-25, z= 5.081876398E-08, to bring it in contact.           
 ****************************************
  

 *** NOTE ***                            CP =       0.703   TIME= 08:30:03
 Symmetric Deformable- deformable contact pair identified by real        
 constant set 59 and contact element type 58 has been set up.  The       
 companion pair has real constant set ID 58.  Both pairs should have     
 the same behavior.                                                      
 ANSYS will deactivate the current pair and keep its companion pair,     
 resulting in asymmetric contact.                                        
 Contact algorithm: Augmented Lagrange method
 Contact detection at: Gauss integration point
 Contact stiffness factor FKN                 0.10000    
 The resulting initial contact stiffness      0.54167E+19
 Default penetration tolerance factor FTOLN   0.10000    
 The resulting penetration tolerance          0.13846E-07
 Frictionless contact pair is defined
 Update contact stiffness at each iteration
 Average contact surface length               0.46154E-06
 Average contact pair depth                   0.13846E-06
 Default pinball region factor PINB            2.0000    
 The resulting pinball region                 0.27692E-06
 *WARNING*: Initial penetration is included.

 *** NOTE ***                            CP =       0.703   TIME= 08:30:03
 No contact was detected for this contact pair.                          
 ****************************************
  

 *** NOTE ***                            CP =       0.703   TIME= 08:30:03
 Symmetric Deformable- deformable contact pair identified by real        
 constant set 66 and contact element type 66 has been set up.  The       
 companion pair has real constant set ID 67.  Both pairs should have     
 the same behavior.                                                      
 ANSYS will keep the current pair and deactivate its companion pair,     
 resulting in asymmetric contact.                                        
 Contact algorithm: Augmented Lagrange method
 Contact detection at: Gauss integration point
 Contact stiffness factor FKN                 0.10000    
 The resulting initial contact stiffness      0.54167E+19
 Default penetration tolerance factor FTOLN   0.10000    
 The resulting penetration tolerance          0.53590E-08
 Frictionless contact pair is defined
 Update contact stiffness at each iteration
 Average contact surface length               0.65675E-07
 Average contact pair depth                   0.53590E-07
 Default pinball region factor PINB            2.0000    
 The resulting pinball region                 0.10718E-06
 *WARNING*: Initial penetration is included.

 *** NOTE ***                            CP =       0.703   TIME= 08:30:03
 Min.  Initial gap 5.115551376E-08 was detected between contact element  
 140663 and target element 140899.                                       
 You may move entire target surface by: x= -6.589515153E-25, y=          
 -5.860018412E-09, z= 5.081876398E-08, to bring it in contact.           
 ****************************************
  

 *** NOTE ***                            CP =       0.703   TIME= 08:30:03
 Symmetric Deformable- deformable contact pair identified by real        
 constant set 67 and contact element type 66 has been set up.  The       
 companion pair has real constant set ID 66.  Both pairs should have     
 the same behavior.                                                      
 ANSYS will deactivate the current pair and keep its companion pair,     
 resulting in asymmetric contact.                                        
 Contact algorithm: Augmented Lagrange method
 Contact detection at: Gauss integration point
 Contact stiffness factor FKN                 0.10000    
 The resulting initial contact stiffness      0.54167E+19
 Default penetration tolerance factor FTOLN   0.10000    
 The resulting penetration tolerance          0.13846E-07
 Frictionless contact pair is defined
 Update contact stiffness at each iteration
 Average contact surface length               0.46154E-06
 Average contact pair depth                   0.13846E-06
 Default pinball region factor PINB            2.0000    
 The resulting pinball region                 0.27692E-06
 *WARNING*: Initial penetration is included.

 *** NOTE ***                            CP =       0.703   TIME= 08:30:03
 No contact was detected for this contact pair.                          
 ****************************************
  

 *** NOTE ***                            CP =       0.703   TIME= 08:30:03
 Symmetric Deformable- deformable contact pair identified by real        
 constant set 68 and contact element type 68 has been set up.  The       
 companion pair has real constant set ID 69.  Both pairs should have     
 the same behavior.                                                      
 ANSYS will keep the current pair and deactivate its companion pair,     
 resulting in asymmetric contact.                                        
 Contact algorithm: Augmented Lagrange method
 Contact detection at: Gauss integration point
 Contact stiffness factor FKN                 0.10000    
 The resulting initial contact stiffness      0.54167E+19
 Default penetration tolerance factor FTOLN   0.10000    
 The resulting penetration tolerance          0.53590E-08
 Frictionless contact pair is defined
 Update contact stiffness at each iteration
 Average contact surface length               0.66077E-07
 Average contact pair depth                   0.53590E-07
 Default pinball region factor PINB            2.0000    
 The resulting pinball region                 0.10718E-06
 *WARNING*: Initial penetration is included.

 *** NOTE ***                            CP =       0.703   TIME= 08:30:03
 Min.  Initial gap 5.115551376E-08 was detected between contact element  
 141047 and target element 141281.                                       
 You may move entire target surface by: x= 6.589515153E-25, y=           
 5.860018412E-09, z= 5.081876398E-08, to bring it in contact.            
 ****************************************
  

 *** NOTE ***                            CP =       0.703   TIME= 08:30:03
 Symmetric Deformable- deformable contact pair identified by real        
 constant set 69 and contact element type 68 has been set up.  The       
 companion pair has real constant set ID 68.  Both pairs should have     
 the same behavior.                                                      
 ANSYS will deactivate the current pair and keep its companion pair,     
 resulting in asymmetric contact.                                        
 Contact algorithm: Augmented Lagrange method
 Contact detection at: Gauss integration point
 Contact stiffness factor FKN                 0.10000    
 The resulting initial contact stiffness      0.54167E+19
 Default penetration tolerance factor FTOLN   0.10000    
 The resulting penetration tolerance          0.13846E-07
 Frictionless contact pair is defined
 Update contact stiffness at each iteration
 Average contact surface length               0.46154E-06
 Average contact pair depth                   0.13846E-06
 Default pinball region factor PINB            2.0000    
 The resulting pinball region                 0.27692E-06
 *WARNING*: Initial penetration is included.

 *** NOTE ***                            CP =       0.703   TIME= 08:30:03
 No contact was detected for this contact pair.                          
 ****************************************
  

 *** NOTE ***                            CP =       0.703   TIME= 08:30:03
 Symmetric Deformable- deformable contact pair identified by real        
 constant set 74 and contact element type 74 has been set up.  The       
 companion pair has real constant set ID 75.  Both pairs should have     
 the same behavior.                                                      
 ANSYS will keep the current pair and deactivate its companion pair,     
 resulting in asymmetric contact.                                        
 Contact algorithm: Augmented Lagrange method
 Contact detection at: Gauss integration point
 Contact stiffness factor FKN                 0.10000    
 The resulting initial contact stiffness      0.54167E+19
 Default penetration tolerance factor FTOLN   0.10000    
 The resulting penetration tolerance          0.53590E-08
 Frictionless contact pair is defined
 Update contact stiffness at each iteration
 Average contact surface length               0.65654E-07
 Average contact pair depth                   0.53590E-07
 Default pinball region factor PINB            2.0000    
 The resulting pinball region                 0.10718E-06
 *WARNING*: Initial penetration is included.

 *** NOTE ***                            CP =       0.703   TIME= 08:30:03
 Min.  Initial gap 5.115551376E-08 was detected between contact element  
 142223 and target element 142469.                                       
 You may move entire target surface by: x= 5.860018412E-09, y=           
 3.95353429E-24, z= 5.081876398E-08, to bring it in contact.             
 ****************************************
  

 *** NOTE ***                            CP =       0.703   TIME= 08:30:03
 Symmetric Deformable- deformable contact pair identified by real        
 constant set 75 and contact element type 74 has been set up.  The       
 companion pair has real constant set ID 74.  Both pairs should have     
 the same behavior.                                                      
 ANSYS will deactivate the current pair and keep its companion pair,     
 resulting in asymmetric contact.                                        
 Contact algorithm: Augmented Lagrange method
 Contact detection at: Gauss integration point
 Contact stiffness factor FKN                 0.10000    
 The resulting initial contact stiffness      0.54167E+19
 Default penetration tolerance factor FTOLN   0.10000    
 The resulting penetration tolerance          0.13846E-07
 Frictionless contact pair is defined
 Update contact stiffness at each iteration
 Average contact surface length               0.46154E-06
 Average contact pair depth                   0.13846E-06
 Default pinball region factor PINB            2.0000    
 The resulting pinball region                 0.27692E-06
 *WARNING*: Initial penetration is included.

 *** NOTE ***                            CP =       0.703   TIME= 08:30:03
 No contact was detected for this contact pair.                          
 ****************************************
  

 *** NOTE ***                            CP =       0.703   TIME= 08:30:03
 Symmetric Deformable- deformable contact pair identified by real        
 constant set 76 and contact element type 76 has been set up.  The       
 companion pair has real constant set ID 77.  Both pairs should have     
 the same behavior.                                                      
 ANSYS will keep the current pair and deactivate its companion pair,     
 resulting in asymmetric contact.                                        
 Contact algorithm: Augmented Lagrange method
 Contact detection at: Gauss integration point
 Contact stiffness factor FKN                 0.10000    
 The resulting initial contact stiffness      0.54167E+19
 Default penetration tolerance factor FTOLN   0.10000    
 The resulting penetration tolerance          0.53590E-08
 Frictionless contact pair is defined
 Update contact stiffness at each iteration
 Average contact surface length               0.66063E-07
 Average contact pair depth                   0.53590E-07
 Default pinball region factor PINB            2.0000    
 The resulting pinball region                 0.10718E-06
 *WARNING*: Initial penetration is included.

 *** NOTE ***                            CP =       0.703   TIME= 08:30:03
 Min.  Initial gap 5.115551376E-08 was detected between contact element  
 142595 and target element 142879.                                       
 You may move entire target surface by: x= -5.860018412E-09, y=          
 6.589515153E-25, z= 5.081876398E-08, to bring it in contact.            
 ****************************************
  

 *** NOTE ***                            CP =       0.703   TIME= 08:30:03
 Symmetric Deformable- deformable contact pair identified by real        
 constant set 77 and contact element type 76 has been set up.  The       
 companion pair has real constant set ID 76.  Both pairs should have     
 the same behavior.                                                      
 ANSYS will deactivate the current pair and keep its companion pair,     
 resulting in asymmetric contact.                                        
 Contact algorithm: Augmented Lagrange method
 Contact detection at: Gauss integration point
 Contact stiffness factor FKN                 0.10000    
 The resulting initial contact stiffness      0.54167E+19
 Default penetration tolerance factor FTOLN   0.10000    
 The resulting penetration tolerance          0.13846E-07
 Frictionless contact pair is defined
 Update contact stiffness at each iteration
 Average contact surface length               0.46154E-06
 Average contact pair depth                   0.13846E-06
 Default pinball region factor PINB            2.0000    
 The resulting pinball region                 0.27692E-06
 *WARNING*: Initial penetration is included.

 *** NOTE ***                            CP =       0.703   TIME= 08:30:03
 No contact was detected for this contact pair.                          
 ****************************************
  

  
 *************************************************
  SUMMARY FOR CONTACT PAIR IDENTIFIED BY REAL CONSTANT SET          16
 Max.  Penetration of -1.32348898E-23 has been detected between contact  
 element 131195 and target element 133044.                               
  
 Max.  Geometrical gap of 2.64697796E-23 has been detected between       
 contact element 130900 and target element 133031.                       
 For total 738 contact elements, there are 738 elements are in contact.  
 There are 738 elements are in sticking.                                 
 Contacting area 1.28976E-11.                                            
 Max.  Pinball distance 5.922846439E-08.                                 
 One of the contact searching regions contains at least 26 target        
 elements.                                                               
 Max.  Pressure/force 8.656432469E-04.                                   
 Max.  Normal stiffness 4.769783043E+18.                                 
 Min.  Normal stiffness 4.769783043E+18.                                 
 Max.  Tangential stiffness 3.577337282E+17.                             
 Min.  Tangential stiffness 3.577337282E+17.                             
 *************************************************
  
 *************************************************
  SUMMARY FOR CONTACT PAIR IDENTIFIED BY REAL CONSTANT SET          17

 *** NOTE ***                            CP =       2.422   TIME= 08:30:04
 Contact pair is inactive.                                               
  
 *************************************************
  SUMMARY FOR CONTACT PAIR IDENTIFIED BY REAL CONSTANT SET          20
 Max.  Penetration of 0 has been detected between contact element 133714 
 and target element 133795.                                              
 For total 54 contact elements, there are 54 elements are in contact.    
 There are 54 elements are in sticking.                                  
 Contacting area 1.476E-13.                                              
 Max.  Pinball distance 1.528860955E-08.                                 
 One of the contact searching regions contains at least 10 target        
 elements.                                                               
 Max.  Pressure/force 9.258677514E-04.                                   
 Max.  Normal stiffness 1.172005936E+19.                                 
 Min.  Normal stiffness 1.172005936E+19.                                 
 Max.  Tangential stiffness 8.790044521E+17.                             
 Min.  Tangential stiffness 8.790044521E+17.                             
 *************************************************
  
 *************************************************
  SUMMARY FOR CONTACT PAIR IDENTIFIED BY REAL CONSTANT SET          21

 *** NOTE ***                            CP =       2.422   TIME= 08:30:04
 Contact pair is inactive.                                               
  
 *************************************************
  SUMMARY FOR CONTACT PAIR IDENTIFIED BY REAL CONSTANT SET          24
 Max.  Penetration of 0 has been detected between contact element 134012 
 and target element 134103.                                              
 For total 54 contact elements, there are 54 elements are in contact.    
 There are 54 elements are in sticking.                                  
 Contacting area 1.476E-13.                                              
 Max.  Pinball distance 1.528860882E-08.                                 
 One of the contact searching regions contains at least 10 target        
 elements.                                                               
 Max.  Pressure/force 9.278302179E-04.                                   
 Max.  Normal stiffness 1.174490124E+19.                                 
 Min.  Normal stiffness 1.174490124E+19.                                 
 Max.  Tangential stiffness 8.808675928E+17.                             
 Min.  Tangential stiffness 8.808675928E+17.                             
 *************************************************
  
 *************************************************
  SUMMARY FOR CONTACT PAIR IDENTIFIED BY REAL CONSTANT SET          25

 *** NOTE ***                            CP =       2.422   TIME= 08:30:04
 Contact pair is inactive.                                               
  
 *************************************************
  SUMMARY FOR CONTACT PAIR IDENTIFIED BY REAL CONSTANT SET          26
 Max.  Penetration of 0 has been detected between contact element 134168 
 and target element 134298.                                              
 For total 52 contact elements, there are 52 elements are in contact.    
 There are 52 elements are in sticking.                                  
 Contacting area 1.51568E-13.                                            
 Max.  Pinball distance 1.366865638E-08.                                 
 One of the contact searching regions contains at least 14 target        
 elements.                                                               
 Max.  Pressure/force 9.980238375E-04.                                   
 Max.  Normal stiffness 1.29119366E+19.                                  
 Min.  Normal stiffness 1.29119366E+19.                                  
 Max.  Tangential stiffness 9.683952448E+17.                             
 Min.  Tangential stiffness 9.683952448E+17.                             
 *************************************************
  
 *************************************************
  SUMMARY FOR CONTACT PAIR IDENTIFIED BY REAL CONSTANT SET          27

 *** NOTE ***                            CP =       2.422   TIME= 08:30:04
 Contact pair is inactive.                                               
  
 *************************************************
  SUMMARY FOR CONTACT PAIR IDENTIFIED BY REAL CONSTANT SET          30
 Max.  Penetration of 0 has been detected between contact element 134544 
 and target element 134648.                                              
 For total 56 contact elements, there are 56 elements are in contact.    
 There are 56 elements are in sticking.                                  
 Contacting area 1.51568E-13.                                            
 Max.  Pinball distance 1.321307989E-08.                                 
 One of the contact searching regions contains at least 14 target        
 elements.                                                               
 Max.  Pressure/force 9.058248265E-04.                                   
 Max.  Normal stiffness 1.274331612E+19.                                 
 Min.  Normal stiffness 1.274331612E+19.                                 
 Max.  Tangential stiffness 9.557487089E+17.                             
 Min.  Tangential stiffness 9.557487089E+17.                             
 *************************************************
  
 *************************************************
  SUMMARY FOR CONTACT PAIR IDENTIFIED BY REAL CONSTANT SET          31

 *** NOTE ***                            CP =       2.422   TIME= 08:30:04
 Contact pair is inactive.                                               
  
 *************************************************
  SUMMARY FOR CONTACT PAIR IDENTIFIED BY REAL CONSTANT SET          34
 Max.  Penetration of 0 has been detected between contact element 134906 
 and target element 134970.                                              
 For total 36 contact elements, there are 36 elements are in contact.    
 There are 36 elements are in sticking.                                  
 Contacting area 1.6E-13.                                                
 Max.  Pinball distance 2.5E-08.                                         
 One of the contact searching regions contains at least 11 target        
 elements.                                                               
 Max.  Pressure/force 1.448841047E-03.                                   
 Max.  Normal stiffness 2.446875E+19.                                    
 Min.  Normal stiffness 2.446875E+19.                                    
 Max.  Tangential stiffness 1.83515625E+18.                              
 Min.  Tangential stiffness 1.83515625E+18.                              
 *************************************************
  
 *************************************************
  SUMMARY FOR CONTACT PAIR IDENTIFIED BY REAL CONSTANT SET          35

 *** NOTE ***                            CP =       2.422   TIME= 08:30:04
 Contact pair is inactive.                                               
  
 *************************************************
  SUMMARY FOR CONTACT PAIR IDENTIFIED BY REAL CONSTANT SET          38
 Max.  Penetration of 0 has been detected between contact element 135096 
 and target element 135163.                                              
 For total 36 contact elements, there are 36 elements are in contact.    
 There are 36 elements are in sticking.                                  
 Contacting area 1.6E-13.                                                
 Max.  Pinball distance 2.5E-08.                                         
 One of the contact searching regions contains at least 10 target        
 elements.                                                               
 Max.  Pressure/force 1.448841047E-03.                                   
 Max.  Normal stiffness 2.446875E+19.                                    
 Min.  Normal stiffness 2.446875E+19.                                    
 Max.  Tangential stiffness 1.83515625E+18.                              
 Min.  Tangential stiffness 1.83515625E+18.                              
 *************************************************
  
 *************************************************
  SUMMARY FOR CONTACT PAIR IDENTIFIED BY REAL CONSTANT SET          39

 *** NOTE ***                            CP =       2.422   TIME= 08:30:04
 Contact pair is inactive.                                               
  
 *************************************************
  SUMMARY FOR CONTACT PAIR IDENTIFIED BY REAL CONSTANT SET          42
 Max.  Penetration of 0 has been detected between contact element 135286 
 and target element 135355.                                              
 For total 36 contact elements, there are 36 elements are in contact.    
 There are 36 elements are in sticking.                                  
 Contacting area 1.6E-13.                                                
 Max.  Pinball distance 2.5E-08.                                         
 One of the contact searching regions contains at least 14 target        
 elements.                                                               
 Max.  Pressure/force 1.448841047E-03.                                   
 Max.  Normal stiffness 2.446875E+19.                                    
 Min.  Normal stiffness 2.446875E+19.                                    
 Max.  Tangential stiffness 1.83515625E+18.                              
 Min.  Tangential stiffness 1.83515625E+18.                              
 *************************************************
  
 *************************************************
  SUMMARY FOR CONTACT PAIR IDENTIFIED BY REAL CONSTANT SET          43

 *** NOTE ***                            CP =       2.422   TIME= 08:30:04
 Contact pair is inactive.                                               
  
 *************************************************
  SUMMARY FOR CONTACT PAIR IDENTIFIED BY REAL CONSTANT SET          46
 Max.  Penetration of 0 has been detected between contact element 135476 
 and target element 135548.                                              
 For total 36 contact elements, there are 36 elements are in contact.    
 There are 36 elements are in sticking.                                  
 Contacting area 1.6E-13.                                                
 Max.  Pinball distance 2.5E-08.                                         
 One of the contact searching regions contains at least 11 target        
 elements.                                                               
 Max.  Pressure/force 1.448841047E-03.                                   
 Max.  Normal stiffness 2.446875E+19.                                    
 Min.  Normal stiffness 2.446875E+19.                                    
 Max.  Tangential stiffness 1.83515625E+18.                              
 Min.  Tangential stiffness 1.83515625E+18.                              
 *************************************************
  
 *************************************************
  SUMMARY FOR CONTACT PAIR IDENTIFIED BY REAL CONSTANT SET          47

 *** NOTE ***                            CP =       2.422   TIME= 08:30:04
 Contact pair is inactive.                                               
  
 *************************************************
  SUMMARY FOR CONTACT PAIR IDENTIFIED BY REAL CONSTANT SET          56
 Min.  Gap of 5.115551376E-08 has been detected between contact element  
 138732 and target element 139015.                                       
 Max.  Pinball distance 1.071807953E-07.                                 
 One of the contact searching regions contains at least 4 target         
 elements.                                                               
 *************************************************
  
 *************************************************
  SUMMARY FOR CONTACT PAIR IDENTIFIED BY REAL CONSTANT SET          57

 *** NOTE ***                            CP =       2.422   TIME= 08:30:04
 Contact pair is inactive.                                               
  
 *************************************************
  SUMMARY FOR CONTACT PAIR IDENTIFIED BY REAL CONSTANT SET          58
 Min.  Gap of 5.115551376E-08 has been detected between contact element  
 139109 and target element 139373.                                       
 Max.  Pinball distance 1.07180795E-07.                                  
 One of the contact searching regions contains at least 4 target         
 elements.                                                               
 *************************************************
  
 *************************************************
  SUMMARY FOR CONTACT PAIR IDENTIFIED BY REAL CONSTANT SET          59

 *** NOTE ***                            CP =       2.422   TIME= 08:30:04
 Contact pair is inactive.                                               
  
 *************************************************
  SUMMARY FOR CONTACT PAIR IDENTIFIED BY REAL CONSTANT SET          66
 Min.  Gap of 5.115551376E-08 has been detected between contact element  
 140663 and target element 140899.                                       
 Max.  Pinball distance 1.071807924E-07.                                 
 One of the contact searching regions contains at least 4 target         
 elements.                                                               
 *************************************************
  
 *************************************************
  SUMMARY FOR CONTACT PAIR IDENTIFIED BY REAL CONSTANT SET          67

 *** NOTE ***                            CP =       2.422   TIME= 08:30:04
 Contact pair is inactive.                                               
  
 *************************************************
  SUMMARY FOR CONTACT PAIR IDENTIFIED BY REAL CONSTANT SET          68
 Min.  Gap of 5.115551376E-08 has been detected between contact element  
 141047 and target element 141281.                                       
 Max.  Pinball distance 1.071807924E-07.                                 
 One of the contact searching regions contains at least 4 target         
 elements.                                                               
 *************************************************
  
 *************************************************
  SUMMARY FOR CONTACT PAIR IDENTIFIED BY REAL CONSTANT SET          69

 *** NOTE ***                            CP =       2.422   TIME= 08:30:04
 Contact pair is inactive.                                               
  
 *************************************************
  SUMMARY FOR CONTACT PAIR IDENTIFIED BY REAL CONSTANT SET          74
 Min.  Gap of 5.115551376E-08 has been detected between contact element  
 142223 and target element 142469.                                       
 Max.  Pinball distance 1.071807934E-07.                                 
 One of the contact searching regions contains at least 4 target         
 elements.                                                               
 *************************************************
  
 *************************************************
  SUMMARY FOR CONTACT PAIR IDENTIFIED BY REAL CONSTANT SET          75

 *** NOTE ***                            CP =       2.422   TIME= 08:30:04
 Contact pair is inactive.                                               
  
 *************************************************
  SUMMARY FOR CONTACT PAIR IDENTIFIED BY REAL CONSTANT SET          76
 Min.  Gap of 5.115551376E-08 has been detected between contact element  
 142595 and target element 142879.                                       
 Max.  Pinball distance 1.071807937E-07.                                 
 One of the contact searching regions contains at least 4 target         
 elements.                                                               
 *************************************************
  
 *************************************************
  SUMMARY FOR CONTACT PAIR IDENTIFIED BY REAL CONSTANT SET          77

 *** NOTE ***                            CP =       2.422   TIME= 08:30:04
 Contact pair is inactive.                                               


  *** MASS SUMMARY BY ELEMENT TYPE ***

  TYPE      MASS
     2  0.289500E-17
     3  0.703841E-16
     6  0.712606E-16
     8  0.712305E-16
     9  0.712376E-16
    12  0.660160E-16
    13  0.660160E-16
    14  0.251503E-14
 AN AVERAGE OF THE X-, Y-, AND Z-DIRECTION MASS TERMS ARE USED
     FORCE CONVERGENCE VALUE  =  0.4035E-15  CRITERION=  0.1000E-02
     CURRENT CONVERGENCE VALUE=   0.000      CRITERION=   0.000    

  Local memory allocated for solver              =    233.057 MB
  Local memory required for in-core solution     =    190.936 MB
  Local memory required for out-of-core solution =     80.000 MB

 *** NOTE ***                            CP =       3.469   TIME= 08:30:06
 The Distributed Sparse Matrix Solver is currently running in the        
 in-core memory mode.  This memory mode uses the most amount of memory   
 in order to avoid using the hard drive as much as possible, which most  
 often results in the fastest solution time.  This mode is recommended   
 if enough physical memory is present to accommodate all of the solver   
 data.                                                                   

 *** NOTE ***                            CP =       3.469   TIME= 08:30:06
 The system matrix is unsymmetric.                                       
    EQUIL ITER   1 COMPLETED.  NEW TRIANG MATRIX.  MAX DOF INC=   10.00    
     FORCE CONVERGENCE VALUE  =  0.4194E-07  CRITERION=  0.1000E-02 <<< CONVERGED
     CURRENT CONVERGENCE VALUE=   0.000      CRITERION=  0.9249E-24 <<< CONVERGED
     FORCE CONVERGENCE VALUE  =  0.4194E-07  CRITERION=  0.1000E-02 <<< CONVERGED
     CURRENT CONVERGENCE VALUE=   0.000      CRITERION=  0.9249E-24 <<< CONVERGED
    >>> SOLUTION CONVERGED AFTER EQUILIBRIUM ITERATION   2
     FORCE CONVERGENCE VALUE  =  0.4194E-07  CRITERION=  0.1000E-02 <<< CONVERGED
     CURRENT CONVERGENCE VALUE=   0.000      CRITERION=  0.9249E-24 <<< CONVERGED
    >>> SOLUTION CONVERGED AFTER EQUILIBRIUM ITERATION   2

   *** ELEMENT RESULT CALCULATION TIMES
     TYPE    NUMBER   ENAME      TOTAL CP  AVE CP

        1      2829  SOLID187      0.484   0.000171
        2       182  SOLID187      0.031   0.000172
        3       182  SOLID187      0.031   0.000172
        4       182  SOLID187      0.016   0.000086
        5       182  SOLID187      0.047   0.000258
        6       174  SOLID187      0.047   0.000269
        7       165  SOLID187      0.047   0.000284
        8       171  SOLID187      0.031   0.000183
        9       164  SOLID187      0.031   0.000191
       10        72  SOLID186      0.000   0.000000
       11        72  SOLID186      0.047   0.000651
       12        72  SOLID186      0.031   0.000434
       13        72  SOLID186      0.031   0.000434
       14      3001  SOLID187      0.297   0.000099
       15       169  SOLID186      0.016   0.000092
       16      1714  CONTA174      0.109   0.000064
       18        70  CONTA174      0.000   0.000000
       20        79  CONTA174      0.016   0.000198
       22        70  CONTA174      0.000   0.000000
       24        79  CONTA174      0.016   0.000198
       26        94  CONTA174      0.000   0.000000
       28        92  CONTA174      0.000   0.000000
       30        99  CONTA174      0.000   0.000000
       32        92  CONTA174      0.000   0.000000
       34        55  CONTA174      0.000   0.000000
       36        40  CONTA174      0.000   0.000000
       38        55  CONTA174      0.016   0.000284
       40        40  CONTA174      0.016   0.000391
       42        55  CONTA174      0.016   0.000284
       44        40  CONTA174      0.000   0.000000
       46        55  CONTA174      0.016   0.000284
       48        40  CONTA174      0.000   0.000000
       50      1145  CONTA174      0.094   0.000082
       52       195  CONTA174      0.016   0.000080
       54       195  CONTA174      0.016   0.000080
       56       192  CONTA174      0.000   0.000000
       58       192  CONTA174      0.000   0.000000
       60       195  CONTA174      0.016   0.000080
       62       195  CONTA174      0.000   0.000000
       64       195  CONTA174      0.016   0.000080
       66       192  CONTA174      0.016   0.000081
       68       192  CONTA174      0.016   0.000081
       70       195  CONTA174      0.016   0.000080
       72       195  CONTA174      0.000   0.000000
       74       192  CONTA174      0.000   0.000000
       76       192  CONTA174      0.000   0.000000
       78       195  CONTA174      0.000   0.000000
       80       195  CONTA174      0.016   0.000080
[...]
     FORCE CONVERGENCE VALUE  =  0.2168E-06  CRITERION=  0.1000E-02 <<< CONVERGED
     CURRENT CONVERGENCE VALUE=   0.000      CRITERION=  0.3950E-23 <<< CONVERGED
    >>> SOLUTION CONVERGED AFTER EQUILIBRIUM ITERATION   1
 *** LOAD STEP     3   SUBSTEP     7  COMPLETED.    CUM ITER =     93
 *** TIME =  0.164184E-06     TIME INC =  0.241544E-08
 *** RESPONSE FREQ = 0.1659E+08   PERIOD=  0.6028E-07  PTS/CYC =  25.    
 *** AUTO TIME STEP:  NEXT TIME INC = 0.30140E-08  INCREASED (FACTOR = 1.2478)

     FORCE CONVERGENCE VALUE  =  0.3947E-06  CRITERION=  0.1000E-02
     CURRENT CONVERGENCE VALUE=   0.000      CRITERION=  0.3143E-23
    EQUIL ITER   1 COMPLETED.  NEW TRIANG MATRIX.  MAX DOF INC=  0.6849E-08
     FORCE CONVERGENCE VALUE  =  0.3519E-06  CRITERION=  0.1000E-02 <<< CONVERGED
     CURRENT CONVERGENCE VALUE=   0.000      CRITERION=  0.4127E-23 <<< CONVERGED
    >>> SOLUTION CONVERGED AFTER EQUILIBRIUM ITERATION   1
 *** LOAD STEP     3   SUBSTEP     8  COMPLETED.    CUM ITER =     94
 *** TIME =  0.167198E-06     TIME INC =  0.301397E-08
 *** RESPONSE FREQ = 0.1181E+08   PERIOD=  0.8464E-07  PTS/CYC =  28.    
 *** AUTO TIME STEP:  NEXT TIME INC = 0.42320E-08  INCREASED (FACTOR = 1.4041)

     FORCE CONVERGENCE VALUE  =  0.4626E-06  CRITERION=  0.1000E-02
     CURRENT CONVERGENCE VALUE=   0.000      CRITERION=  0.3284E-23
    EQUIL ITER   1 COMPLETED.  NEW TRIANG MATRIX.  MAX DOF INC=  0.9697E-08
     FORCE CONVERGENCE VALUE  =  0.7842E-06  CRITERION=  0.1000E-02 <<< CONVERGED
     CURRENT CONVERGENCE VALUE=   0.000      CRITERION=  0.4151E-23 <<< CONVERGED
    >>> SOLUTION CONVERGED AFTER EQUILIBRIUM ITERATION   1
 *** LOAD STEP     3   SUBSTEP     9  COMPLETED.    CUM ITER =     95
 *** TIME =  0.171430E-06     TIME INC =  0.423204E-08
 *** RESPONSE FREQ = 0.9697E+07   PERIOD=  0.1031E-06  PTS/CYC =  24.    
 *** AUTO TIME STEP:  NEXT TIME INC = 0.51562E-08  INCREASED (FACTOR = 1.2184)

     FORCE CONVERGENCE VALUE  =  0.8704E-06  CRITERION=  0.1000E-02
     CURRENT CONVERGENCE VALUE=   0.000      CRITERION=  0.3312E-23
    EQUIL ITER   1 COMPLETED.  NEW TRIANG MATRIX.  MAX DOF INC=  0.1166E-07
     FORCE CONVERGENCE VALUE  =  0.1039E-05  CRITERION=  0.1000E-02 <<< CONVERGED
     CURRENT CONVERGENCE VALUE=   0.000      CRITERION=  0.3710E-23 <<< CONVERGED
    >>> SOLUTION CONVERGED AFTER EQUILIBRIUM ITERATION   1
 *** LOAD STEP     3   SUBSTEP    10  COMPLETED.    CUM ITER =     96
 *** TIME =  0.176586E-06     TIME INC =  0.515624E-08
 *** RESPONSE FREQ = 0.8194E+07   PERIOD=  0.1220E-06  PTS/CYC =  24.    
 *** AUTO TIME STEP:  NEXT TIME INC = 0.61019E-08  INCREASED (FACTOR = 1.1834)

     FORCE CONVERGENCE VALUE  =  0.1103E-05  CRITERION=  0.1000E-02
     CURRENT CONVERGENCE VALUE=   0.000      CRITERION=  0.2943E-23
    EQUIL ITER   1 COMPLETED.  NEW TRIANG MATRIX.  MAX DOF INC=  0.1633E-07
     FORCE CONVERGENCE VALUE  =  0.2063E-05  CRITERION=  0.1000E-02 <<< CONVERGED
     CURRENT CONVERGENCE VALUE=   0.000      CRITERION=  0.3033E-23 <<< CONVERGED
    >>> SOLUTION CONVERGED AFTER EQUILIBRIUM ITERATION   1
 *** LOAD STEP     3   SUBSTEP    11  COMPLETED.    CUM ITER =     97
 *** TIME =  0.182688E-06     TIME INC =  0.610191E-08
 *** RESPONSE FREQ = 0.7758E+07   PERIOD=  0.1289E-06  PTS/CYC =  21.    
 *** AUTO TIME STEP:  NEXT TIME INC = 0.64449E-08  INCREASED (FACTOR = 1.0562)

     FORCE CONVERGENCE VALUE  =  0.2189E-05  CRITERION=  0.1000E-02
     CURRENT CONVERGENCE VALUE=   0.000      CRITERION=  0.2395E-23
    EQUIL ITER   1 COMPLETED.  NEW TRIANG MATRIX.  MAX DOF INC=  0.1707E-07
     FORCE CONVERGENCE VALUE  =  0.2309E-05  CRITERION=  0.1000E-02 <<< CONVERGED
     CURRENT CONVERGENCE VALUE=   0.000      CRITERION=  0.2280E-23 <<< CONVERGED
    >>> SOLUTION CONVERGED AFTER EQUILIBRIUM ITERATION   1
 *** LOAD STEP     3   SUBSTEP    12  COMPLETED.    CUM ITER =     98
 *** TIME =  0.189133E-06     TIME INC =  0.644486E-08
 *** RESPONSE FREQ = 0.7872E+07   PERIOD=  0.1270E-06  PTS/CYC =  20.    
 *** AUTO TIME STEP:  NEXT TIME INC = 0.63519E-08  DECREASED (FACTOR = 0.9856)

     FORCE CONVERGENCE VALUE  =  0.2354E-05  CRITERION=  0.1000E-02
     CURRENT CONVERGENCE VALUE=   0.000      CRITERION=  0.1783E-23
    EQUIL ITER   1 COMPLETED.  NEW TRIANG MATRIX.  MAX DOF INC=  0.1484E-07
     FORCE CONVERGENCE VALUE  =  0.1879E-05  CRITERION=  0.1000E-02 <<< CONVERGED
     CURRENT CONVERGENCE VALUE=   0.000      CRITERION=  0.1653E-23 <<< CONVERGED
    >>> SOLUTION CONVERGED AFTER EQUILIBRIUM ITERATION   1
 *** LOAD STEP     3   SUBSTEP    13  COMPLETED.    CUM ITER =     99
 *** TIME =  0.195485E-06     TIME INC =  0.635191E-08
 *** RESPONSE FREQ = 0.7396E+07   PERIOD=  0.1352E-06  PTS/CYC =  21.    
 *** AUTO STEP TIME:  NEXT TIME INC = 0.63519E-08  UNCHANGED

     FORCE CONVERGENCE VALUE  =  0.1846E-05  CRITERION=  0.1000E-02
     CURRENT CONVERGENCE VALUE=   0.000      CRITERION=  0.1282E-23
    EQUIL ITER   1 COMPLETED.  NEW TRIANG MATRIX.  MAX DOF INC=  0.1288E-07
     FORCE CONVERGENCE VALUE  =  0.1388E-05  CRITERION=  0.1000E-02 <<< CONVERGED
     CURRENT CONVERGENCE VALUE=   0.000      CRITERION=  0.1083E-23 <<< CONVERGED
    >>> SOLUTION CONVERGED AFTER EQUILIBRIUM ITERATION   1
 *** LOAD STEP     3   SUBSTEP    14  COMPLETED.    CUM ITER =    100
 *** TIME =  0.201837E-06     TIME INC =  0.635191E-08
 *** RESPONSE FREQ = 0.7622E+07   PERIOD=  0.1312E-06  PTS/CYC =  21.    
 *** AUTO TIME STEP:  NEXT TIME INC = 0.65604E-08  INCREASED (FACTOR = 1.0328)

     FORCE CONVERGENCE VALUE  =  0.1346E-05  CRITERION=  0.1000E-02
     CURRENT CONVERGENCE VALUE=   0.000      CRITERION=  0.8258E-24
    EQUIL ITER   1 COMPLETED.  NEW TRIANG MATRIX.  MAX DOF INC=  0.9321E-08
     FORCE CONVERGENCE VALUE  =  0.7315E-06  CRITERION=  0.1000E-02 <<< CONVERGED
     CURRENT CONVERGENCE VALUE=   0.000      CRITERION=  0.5815E-24 <<< CONVERGED
    >>> SOLUTION CONVERGED AFTER EQUILIBRIUM ITERATION   1
 *** LOAD STEP     3   SUBSTEP    15  COMPLETED.    CUM ITER =    101
 *** TIME =  0.208397E-06     TIME INC =  0.656038E-08
 *** RESPONSE FREQ = 0.7880E+07   PERIOD=  0.1269E-06  PTS/CYC =  19.    
 *** AUTO TIME STEP:  NEXT TIME INC = 0.63449E-08  DECREASED (FACTOR = 0.9672)

     FORCE CONVERGENCE VALUE  =  0.6787E-06  CRITERION=  0.1000E-02
     CURRENT CONVERGENCE VALUE=   0.000      CRITERION=  0.4275E-24
    EQUIL ITER   1 COMPLETED.  NEW TRIANG MATRIX.  MAX DOF INC=  0.4393E-08
     FORCE CONVERGENCE VALUE  =  0.1953E-06  CRITERION=  0.1000E-02 <<< CONVERGED
     CURRENT CONVERGENCE VALUE=   0.000      CRITERION=  0.1480E-24 <<< CONVERGED
    >>> SOLUTION CONVERGED AFTER EQUILIBRIUM ITERATION   1
 *** LOAD STEP     3   SUBSTEP    16  COMPLETED.    CUM ITER =    102
 *** TIME =  0.214742E-06     TIME INC =  0.634494E-08
 *** RESPONSE FREQ = 0.8964E+07   PERIOD=  0.1116E-06  PTS/CYC =  18.    
 *** AUTO TIME STEP:  NEXT TIME INC = 0.55776E-08  DECREASED (FACTOR = 0.8791)

     FORCE CONVERGENCE VALUE  =  0.1518E-06  CRITERION=  0.1000E-02
     CURRENT CONVERGENCE VALUE=   0.000      CRITERION=  0.8723E-25
    EQUIL ITER   1 COMPLETED.  NEW TRIANG MATRIX.  MAX DOF INC= -0.1375E-08
     FORCE CONVERGENCE VALUE  =  0.2965E-07  CRITERION=  0.1000E-02 <<< CONVERGED
     CURRENT CONVERGENCE VALUE=   0.000      CRITERION=  0.2549E-24 <<< CONVERGED
    >>> SOLUTION CONVERGED AFTER EQUILIBRIUM ITERATION   1
 *** LOAD STEP     3   SUBSTEP    17  COMPLETED.    CUM ITER =    103
 *** TIME =  0.220320E-06     TIME INC =  0.557762E-08
 *** RESPONSE FREQ = 0.1894E+08   PERIOD=  0.5280E-07  PTS/CYC =  9.5    
 *** AUTO TIME STEP:  NEXT TIME INC = 0.27888E-08  DECREASED (FACTOR = 0.5000)

     FORCE CONVERGENCE VALUE  =  0.1328E-06  CRITERION=  0.1000E-02
     CURRENT CONVERGENCE VALUE=   0.000      CRITERION=  0.2300E-24
    EQUIL ITER   1 COMPLETED.  NEW TRIANG MATRIX.  MAX DOF INC= -0.2051E-08
     FORCE CONVERGENCE VALUE  =  0.3604E-07  CRITERION=  0.1000E-02 <<< CONVERGED
     CURRENT CONVERGENCE VALUE=   0.000      CRITERION=  0.4691E-24 <<< CONVERGED
    >>> SOLUTION CONVERGED AFTER EQUILIBRIUM ITERATION   1
 *** LOAD STEP     3   SUBSTEP    18  COMPLETED.    CUM ITER =    104
 *** TIME =  0.223109E-06     TIME INC =  0.278881E-08
 *** RESPONSE FREQ = 0.1066E+08   PERIOD=  0.9381E-07  PTS/CYC =  34.    
 *** AUTO STEP TIME:  NEXT TIME INC = 0.27888E-08  UNCHANGED

     FORCE CONVERGENCE VALUE  =  0.1921E-06  CRITERION=  0.1000E-02
     CURRENT CONVERGENCE VALUE=   0.000      CRITERION=  0.3817E-24
    EQUIL ITER   1 COMPLETED.  NEW TRIANG MATRIX.  MAX DOF INC= -0.2861E-08
     FORCE CONVERGENCE VALUE  =  0.5595E-07  CRITERION=  0.1000E-02 <<< CONVERGED
     CURRENT CONVERGENCE VALUE=   0.000      CRITERION=  0.6653E-24 <<< CONVERGED
    >>> SOLUTION CONVERGED AFTER EQUILIBRIUM ITERATION   1
 *** LOAD STEP     3   SUBSTEP    19  COMPLETED.    CUM ITER =    105
 *** TIME =  0.225897E-06     TIME INC =  0.278881E-08
 *** RESPONSE FREQ = 0.7843E+07   PERIOD=  0.1275E-06  PTS/CYC =  46.    
 *** AUTO TIME STEP:  NEXT TIME INC = 0.41832E-08  INCREASED (FACTOR = 1.5000)

     FORCE CONVERGENCE VALUE  =  0.1858E-06  CRITERION=  0.1000E-02
     CURRENT CONVERGENCE VALUE=   0.000      CRITERION=  0.5345E-24
    EQUIL ITER   1 COMPLETED.  NEW TRIANG MATRIX.  MAX DOF INC= -0.6168E-08
     FORCE CONVERGENCE VALUE  =  0.2397E-06  CRITERION=  0.1000E-02 <<< CONVERGED
     CURRENT CONVERGENCE VALUE=   0.000      CRITERION=  0.9745E-24 <<< CONVERGED
    >>> SOLUTION CONVERGED AFTER EQUILIBRIUM ITERATION   1
 *** LOAD STEP     3   SUBSTEP    20  COMPLETED.    CUM ITER =    106
 *** TIME =  0.230081E-06     TIME INC =  0.418321E-08
 *** RESPONSE FREQ = 0.7487E+07   PERIOD=  0.1336E-06  PTS/CYC =  32.    
 *** AUTO TIME STEP:  NEXT TIME INC = 0.62748E-08  INCREASED (FACTOR = 1.5000)

     FORCE CONVERGENCE VALUE  =  0.3065E-06  CRITERION=  0.1000E-02
     CURRENT CONVERGENCE VALUE=   0.000      CRITERION=  0.7835E-24
    EQUIL ITER   1 COMPLETED.  NEW TRIANG MATRIX.  MAX DOF INC= -0.1184E-07
     FORCE CONVERGENCE VALUE  =  0.1002E-05  CRITERION=  0.1000E-02 <<< CONVERGED
     CURRENT CONVERGENCE VALUE=   0.000      CRITERION=  0.1487E-23 <<< CONVERGED
    >>> SOLUTION CONVERGED AFTER EQUILIBRIUM ITERATION   1
 *** LOAD STEP     3   SUBSTEP    21  COMPLETED.    CUM ITER =    107
 *** TIME =  0.236356E-06     TIME INC =  0.627482E-08
 *** RESPONSE FREQ = 0.7272E+07   PERIOD=  0.1375E-06  PTS/CYC =  22.    
 *** AUTO TIME STEP:  NEXT TIME INC = 0.68754E-08  INCREASED (FACTOR = 1.0957)

     FORCE CONVERGENCE VALUE  =  0.1099E-05  CRITERION=  0.1000E-02
     CURRENT CONVERGENCE VALUE=   0.000      CRITERION=  0.1194E-23
    EQUIL ITER   1 COMPLETED.  NEW TRIANG MATRIX.  MAX DOF INC= -0.1578E-07
     FORCE CONVERGENCE VALUE  =  0.1845E-05  CRITERION=  0.1000E-02 <<< CONVERGED
     CURRENT CONVERGENCE VALUE=   0.000      CRITERION=  0.2131E-23 <<< CONVERGED
    >>> SOLUTION CONVERGED AFTER EQUILIBRIUM ITERATION   1
 *** LOAD STEP     3   SUBSTEP    22  COMPLETED.    CUM ITER =    108
 *** TIME =  0.243231E-06     TIME INC =  0.687544E-08
 *** RESPONSE FREQ = 0.7341E+07   PERIOD=  0.1362E-06  PTS/CYC =  20.    
 *** AUTO TIME STEP:  NEXT TIME INC = 0.68108E-08  DECREASED (FACTOR = 0.9906)

     FORCE CONVERGENCE VALUE  =  0.1941E-05  CRITERION=  0.1000E-02
     CURRENT CONVERGENCE VALUE=   0.000      CRITERION=  0.1694E-23
    EQUIL ITER   1 COMPLETED.  NEW TRIANG MATRIX.  MAX DOF INC= -0.1670E-07
     FORCE CONVERGENCE VALUE  =  0.2212E-05  CRITERION=  0.1000E-02 <<< CONVERGED
     CURRENT CONVERGENCE VALUE=   0.000      CRITERION=  0.2821E-23 <<< CONVERGED
    >>> SOLUTION CONVERGED AFTER EQUILIBRIUM ITERATION   1
 *** LOAD STEP     3   SUBSTEP    23  COMPLETED.    CUM ITER =    109
 *** TIME =  0.250042E-06     TIME INC =  0.681084E-08
 *** RESPONSE FREQ = 0.7260E+07   PERIOD=  0.1377E-06  PTS/CYC =  20.    
 *** AUTO STEP TIME:  NEXT TIME INC = 0.68108E-08  UNCHANGED

     FORCE CONVERGENCE VALUE  =  0.2253E-05  CRITERION=  0.1000E-02
     CURRENT CONVERGENCE VALUE=   0.000      CRITERION=  0.2220E-23
    EQUIL ITER   1 COMPLETED.  NEW TRIANG MATRIX.  MAX DOF INC= -0.1578E-07
     FORCE CONVERGENCE VALUE  =  0.2171E-05  CRITERION=  0.1000E-02 <<< CONVERGED
     CURRENT CONVERGENCE VALUE=   0.000      CRITERION=  0.3441E-23 <<< CONVERGED
    >>> SOLUTION CONVERGED AFTER EQUILIBRIUM ITERATION   1
 *** LOAD STEP     3   SUBSTEP    24  COMPLETED.    CUM ITER =    110
 *** TIME =  0.256853E-06     TIME INC =  0.681084E-08
 *** RESPONSE FREQ = 0.7232E+07   PERIOD=  0.1383E-06  PTS/CYC =  20.    
 *** AUTO TIME STEP:  NEXT TIME INC = 0.69136E-08  INCREASED (FACTOR = 1.0151)

     FORCE CONVERGENCE VALUE  =  0.2170E-05  CRITERION=  0.1000E-02
     CURRENT CONVERGENCE VALUE=   0.000      CRITERION=  0.2681E-23
    EQUIL ITER   1 COMPLETED.  NEW TRIANG MATRIX.  MAX DOF INC= -0.1380E-07
     FORCE CONVERGENCE VALUE  =  0.1703E-05  CRITERION=  0.1000E-02 <<< CONVERGED
     CURRENT CONVERGENCE VALUE=   0.000      CRITERION=  0.3681E-23 <<< CONVERGED
    >>> SOLUTION CONVERGED AFTER EQUILIBRIUM ITERATION   1
 *** LOAD STEP     3   SUBSTEP    25  COMPLETED.    CUM ITER =    111
 *** TIME =  0.263766E-06     TIME INC =  0.691360E-08
 *** RESPONSE FREQ = 0.7199E+07   PERIOD=  0.1389E-06  PTS/CYC =  20.    
 *** AUTO TIME STEP:  NEXT TIME INC = 0.69457E-08  INCREASED (FACTOR = 1.0046)

     FORCE CONVERGENCE VALUE  =  0.1657E-05  CRITERION=  0.1000E-02
     CURRENT CONVERGENCE VALUE=   0.000      CRITERION=  0.2829E-23
    EQUIL ITER   1 COMPLETED.  NEW TRIANG MATRIX.  MAX DOF INC= -0.1072E-07
     FORCE CONVERGENCE VALUE  =  0.1028E-05  CRITERION=  0.1000E-02 <<< CONVERGED
     CURRENT CONVERGENCE VALUE=   0.000      CRITERION=  0.3081E-23 <<< CONVERGED
    >>> SOLUTION CONVERGED AFTER EQUILIBRIUM ITERATION   1
 *** LOAD STEP     3   SUBSTEP    26  COMPLETED.    CUM ITER =    112
 *** TIME =  0.270712E-06     TIME INC =  0.694566E-08
 *** RESPONSE FREQ = 0.7149E+07   PERIOD=  0.1399E-06  PTS/CYC =  20.    
 *** AUTO TIME STEP:  NEXT TIME INC = 0.69942E-08  INCREASED (FACTOR = 1.0070)

     FORCE CONVERGENCE VALUE  =  0.9613E-06  CRITERION=  0.1000E-02
     CURRENT CONVERGENCE VALUE=   0.000      CRITERION=  0.2308E-23
    EQUIL ITER   1 COMPLETED.  NEW TRIANG MATRIX.  MAX DOF INC= -0.6239E-08
     FORCE CONVERGENCE VALUE  =  0.3763E-06  CRITERION=  0.1000E-02 <<< CONVERGED
     CURRENT CONVERGENCE VALUE=   0.000      CRITERION=  0.1418E-23 <<< CONVERGED
    >>> SOLUTION CONVERGED AFTER EQUILIBRIUM ITERATION   1
 *** LOAD STEP     3   SUBSTEP    27  COMPLETED.    CUM ITER =    113
 *** TIME =  0.277706E-06     TIME INC =  0.699422E-08
 *** RESPONSE FREQ = 0.7211E+07   PERIOD=  0.1387E-06  PTS/CYC =  20.    
 *** AUTO TIME STEP:  NEXT TIME INC = 0.69336E-08  DECREASED (FACTOR = 0.9913)

     FORCE CONVERGENCE VALUE  =  0.3141E-06  CRITERION=  0.1000E-02
     CURRENT CONVERGENCE VALUE=   0.000      CRITERION=  0.9644E-24
    EQUIL ITER   1 COMPLETED.  NEW TRIANG MATRIX.  MAX DOF INC= -0.1184E-08
     FORCE CONVERGENCE VALUE  =  0.6153E-07  CRITERION=  0.1000E-02 <<< CONVERGED
     CURRENT CONVERGENCE VALUE=   0.000      CRITERION=  0.8808E-24 <<< CONVERGED
    >>> SOLUTION CONVERGED AFTER EQUILIBRIUM ITERATION   1
 *** LOAD STEP     3   SUBSTEP    28  COMPLETED.    CUM ITER =    114
 *** TIME =  0.284640E-06     TIME INC =  0.693359E-08
 *** RESPONSE FREQ = 0.1472E+08   PERIOD=  0.6793E-07  PTS/CYC =  9.8    
 *** AUTO TIME STEP:  NEXT TIME INC = 0.34668E-08  DECREASED (FACTOR = 0.5000)

     FORCE CONVERGENCE VALUE  =  0.9908E-07  CRITERION=  0.1000E-02
     CURRENT CONVERGENCE VALUE=   0.000      CRITERION=  0.8562E-24
    EQUIL ITER   1 COMPLETED.  NEW TRIANG MATRIX.  MAX DOF INC=  0.2265E-08
     FORCE CONVERGENCE VALUE  =  0.2977E-07  CRITERION=  0.1000E-02 <<< CONVERGED
     CURRENT CONVERGENCE VALUE=   0.000      CRITERION=  0.1983E-23 <<< CONVERGED
    >>> SOLUTION CONVERGED AFTER EQUILIBRIUM ITERATION   1
 *** LOAD STEP     3   SUBSTEP    29  COMPLETED.    CUM ITER =    115
 *** TIME =  0.288107E-06     TIME INC =  0.346680E-08
 *** RESPONSE FREQ = 0.7375E+07   PERIOD=  0.1356E-06  PTS/CYC =  39.    
 *** AUTO STEP TIME:  NEXT TIME INC = 0.34668E-08  UNCHANGED

     FORCE CONVERGENCE VALUE  =  0.1481E-06  CRITERION=  0.1000E-02
     CURRENT CONVERGENCE VALUE=   0.000      CRITERION=  0.1632E-23
    EQUIL ITER   1 COMPLETED.  NEW TRIANG MATRIX.  MAX DOF INC=  0.3438E-08
     FORCE CONVERGENCE VALUE  =  0.7535E-07  CRITERION=  0.1000E-02 <<< CONVERGED
     CURRENT CONVERGENCE VALUE=   0.000      CRITERION=  0.2750E-23 <<< CONVERGED
    >>> SOLUTION CONVERGED AFTER EQUILIBRIUM ITERATION   1
 *** LOAD STEP     3   SUBSTEP    30  COMPLETED.    CUM ITER =    116
 *** TIME =  0.291573E-06     TIME INC =  0.346680E-08
 *** RESPONSE FREQ = 0.7165E+07   PERIOD=  0.1396E-06  PTS/CYC =  40.    
 *** AUTO TIME STEP:  NEXT TIME INC = 0.52002E-08  INCREASED (FACTOR = 1.5000)

     FORCE CONVERGENCE VALUE  =  0.1624E-06  CRITERION=  0.1000E-02
     CURRENT CONVERGENCE VALUE=   0.000      CRITERION=  0.2221E-23
    EQUIL ITER   1 COMPLETED.  NEW TRIANG MATRIX.  MAX DOF INC=  0.7098E-08
     FORCE CONVERGENCE VALUE  =  0.3635E-06  CRITERION=  0.1000E-02 <<< CONVERGED
     CURRENT CONVERGENCE VALUE=   0.000      CRITERION=  0.3339E-23 <<< CONVERGED
    >>> SOLUTION CONVERGED AFTER EQUILIBRIUM ITERATION   1
 *** LOAD STEP     3   SUBSTEP    31  COMPLETED.    CUM ITER =    117
 *** TIME =  0.296774E-06     TIME INC =  0.520019E-08
 *** RESPONSE FREQ = 0.7126E+07   PERIOD=  0.1403E-06  PTS/CYC =  27.    
 *** AUTO TIME STEP:  NEXT TIME INC = 0.32265E-08  DECREASED (FACTOR = 0.6205)

     FORCE CONVERGENCE VALUE  =  0.4862E-06  CRITERION=  0.1000E-02
     CURRENT CONVERGENCE VALUE=   0.000      CRITERION=  0.2697E-23
    EQUIL ITER   1 COMPLETED.  NEW TRIANG MATRIX.  MAX DOF INC=  0.5489E-08
     FORCE CONVERGENCE VALUE  =  0.2556E-06  CRITERION=  0.1000E-02 <<< CONVERGED
     CURRENT CONVERGENCE VALUE=   0.000      CRITERION=  0.3491E-23 <<< CONVERGED
    >>> SOLUTION CONVERGED AFTER EQUILIBRIUM ITERATION   1
 *** LOAD STEP     3   SUBSTEP    32  COMPLETED.    CUM ITER =    118
 *** TIME =  0.300000E-06     TIME INC =  0.322650E-08
 *** RESPONSE FREQ = 0.7081E+07   PERIOD=  0.1412E-06  PTS/CYC =  44.    

 PRINTOUT RESUMED BY /GOP

 FINISH SOLUTION PROCESSING


 ***** ROUTINE COMPLETED *****  CP =       611.500



 PRINTOUT RESUMED BY /GOP


 NUMBER OF WARNING MESSAGES ENCOUNTERED=          0
 NUMBER OF ERROR   MESSAGES ENCOUNTERED=          0


 *---------------------------------------------------------------------------*
 |                                                                           |
 |                       DISTRIBUTED ANSYS RUN COMPLETED                     |
 |                                                                           |
 |---------------------------------------------------------------------------|
 |                                                                           |
 | Ansys 2020 R1               Build 20.1         UP20191203     WINDOWS x64 |
 |                                                                           |
 |---------------------------------------------------------------------------|
 |                                                                           |
 | Database Requested(-db)     1 MB    Scratch Memory Requested      1024 MB |
 | Maximum Database Used       1 MB    Maximum Scratch Memory Used    311 MB |
 |                                                                           |
 |---------------------------------------------------------------------------|
 |                                                                           |
 |        CP Time      (sec) =        611.672       Time  =  08:41:41        |
 |        Elapsed Time (sec) =        726.000       Date  =  04/16/2020      |
 |                                                                           |
 *---------------------------------------------------------------------------*
