
 ANSYS Mechanical Enterprise                       


 *------------------------------------------------------------------*
 |                                                                  |
 |   W E L C O M E   T O   T H E   A N S Y S (R)  P R O G R A M     |
 |                                                                  |
 *------------------------------------------------------------------*




 ***************************************************************
 *            ANSYS 2020 R1          LEGAL NOTICES             *
 ***************************************************************
 *                                                             *
 * Copyright 1971-2020 ANSYS, Inc.  All rights reserved.       *
 * Unauthorized use, distribution or duplication is            *
 * prohibited.                                                 *
 *                                                             *
 * Ansys is a registered trademark of ANSYS, Inc. or its       *
 * subsidiaries in the United States or other countries.       *
 * See the ANSYS, Inc. online documentation or the ANSYS, Inc. *
 * documentation CD or online help for the complete Legal      *
 * Notice.                                                     *
 *                                                             *
 ***************************************************************
 *                                                             *
 * THIS ANSYS SOFTWARE PRODUCT AND PROGRAM DOCUMENTATION       *
 * INCLUDE TRADE SECRETS AND CONFIDENTIAL AND PROPRIETARY      *
 * PRODUCTS OF ANSYS, INC., ITS SUBSIDIARIES, OR LICENSORS.    *
 * The software products and documentation are furnished by    *
 * ANSYS, Inc. or its subsidiaries under a software license    *
 * agreement that contains provisions concerning               *
 * non-disclosure, copying, length and nature of use,          *
 * compliance with exporting laws, warranties, disclaimers,    *
 * limitations of liability, and remedies, and other           *
 * provisions.  The software products and documentation may be *
 * used, disclosed, transferred, or copied only in accordance  *
 * with the terms and conditions of that software license      *
 * agreement.                                                  *
 *                                                             *
 * ANSYS, Inc. is a UL registered                              *
 * ISO 9001:2015 company.                                      *
 *                                                             *
 ***************************************************************
 *                                                             *
 * This product is subject to U.S. laws governing export and   *
 * re-export.                                                  *
 *                                                             *
 * For U.S. Government users, except as specifically granted   *
 * by the ANSYS, Inc. software license agreement, the use,     *
 * duplication, or disclosure by the United States Government  *
 * is subject to restrictions stated in the ANSYS, Inc.        *
 * software license agreement and FAR 12.212 (for non-DOD      *
 * licenses).                                                  *
 *                                                             *
 ***************************************************************

 2020 R1 
     
 Point Releases and Patches installed:   
     
 ANSYS, Inc. Products 2020 R1
 SpaceClaim 2020 R1  
 AIM 2020 R1 
 Live (includes SpaceClaim) 2020 R1  
 Autodyn 2020 R1 
 LS-DYNA 2020 R1 
 CFX (includes CFD-Post) 2020 R1 
 Chemkin 2020 R1 
 EnSight 2020 R1 
 FENSAP-ICE 2020 R1  
 Fluent (includes CFD-Post) 2020 R1  
 Forte 2020 R1   
 Polyflow (includes CFD-Post) 2020 R1
 TurboGrid 2020 R1   
 ICEM CFD 2020 R1
 Aqwa 2020 R1
 Customization Files for User Programmable Features 2020 R1  
 Mechanical Products 2020 R1 
 Additive 2020 R1
 ANSYS Sherlock 2020 R1  
 Icepak (includes CFD-Post) 2020 R1  
 ACIS Geometry Interface 2020 R1 
 AutoCAD Geometry Interface 2020 R1  
 Catia, Version 4 Geometry Interface 2020 R1 
 Catia, Version 5 Geometry Interface 2020 R1 
 Catia, Version 6 Geometry Interface 2020 R1 
 Creo Elements/Direct Modeling Geometry Interface 2020 R1
 Creo Parametric Geometry Interface 2020 R1  
 Inventor Geometry Interface 2020 R1 
 JTOpen Geometry Interface 2020 R1   
 NX Geometry Interface 2020 R1   
 Parasolid Geometry Interface  2020 R1   
 Solid Edge Geometry Interface 2020 R1   
 SOLIDWORKS Geometry Interface 2020 R1   
 ANSYS, Inc. License Manager 2020 R1 


          *****  ANSYS COMMAND LINE ARGUMENTS  *****
  BATCH MODE REQUESTED (-b)    = NOLIST
  INPUT FILE COPY MODE (-c)    = COPY
  DISTRIBUTED MEMORY PARALLEL REQUESTED
       2 PARALLEL PROCESSES REQUESTED WITH SINGLE THREAD PER PROCESS
    TOTAL OF     2 CORES REQUESTED
  INPUT FILE NAME              = C:\Users\Akash Levy\Documents\NEM-Relay-CAD\_ProjectScratch\Scr77DF\dummy.dat
  OUTPUT FILE NAME             = C:\Users\Akash Levy\Documents\NEM-Relay-CAD\_ProjectScratch\Scr77DF\solve.out
  START-UP FILE MODE           = NOREAD
  STOP FILE MODE               = NOREAD

 RELEASE= 2020 R1              BUILD= 20.1      UP20191203   VERSION=WINDOWS x64 
 CURRENT JOBNAME=file0  18:51:37  APR 05, 2020 CP=      0.500


 PARAMETER _DS_PROGRESS =     999.0000000    

 /INPUT FILE= ds.dat  LINE=       0



 *** NOTE ***                            CP =       0.656   TIME= 18:51:37
 The /CONFIG,NOELDB command is not valid in a Distributed ANSYS          
 solution.  Command is ignored.                                          

 *GET  _WALLSTRT  FROM  ACTI  ITEM=TIME WALL  VALUE=  18.8602778    

 TITLE= 
 relay--EM Transient (E5)                                                      


 SET PARAMETER DIMENSIONS ON  _WB_PROJECTSCRATCH_DIR
  TYPE=STRI  DIMENSIONS=      248        1        1

 PARAMETER _WB_PROJECTSCRATCH_DIR(1) = C:\Users\Akash Levy\Documents\NEM-Relay-CAD\_ProjectScratch\Scr77DF\

 SET PARAMETER DIMENSIONS ON  _WB_SOLVERFILES_DIR
  TYPE=STRI  DIMENSIONS=      248        1        1

 PARAMETER _WB_SOLVERFILES_DIR(1) = C:\Users\Akash Levy\Documents\NEM-Relay-CAD\relay_files\dp0\SYS-14\MECH\

 SET PARAMETER DIMENSIONS ON  _WB_USERFILES_DIR
  TYPE=STRI  DIMENSIONS=      248        1        1

 PARAMETER _WB_USERFILES_DIR(1) = C:\Users\Akash Levy\Documents\NEM-Relay-CAD\relay_files\user_files\
 --- Data in consistent MKS units. See Solving Units in the help system for more

 MKS UNITS SPECIFIED FOR INTERNAL    
  LENGTH        (l)  = METER (M)
  MASS          (M)  = KILOGRAM (KG)
  TIME          (t)  = SECOND (SEC)
  TEMPERATURE   (T)  = CELSIUS (C)
  TOFFSET            = 273.0
  CHARGE        (Q)  = COULOMB
  FORCE         (f)  = NEWTON (N) (KG-M/SEC2)
  HEAT               = JOULE (N-M)

  PRESSURE           = PASCAL (NEWTON/M**2)
  ENERGY        (W)  = JOULE (N-M)
  POWER         (P)  = WATT (N-M/SEC)
  CURRENT       (i)  = AMPERE (COULOMBS/SEC)
  CAPACITANCE   (C)  = FARAD
  INDUCTANCE    (L)  = HENRY
  MAGNETIC FLUX      = WEBER
  RESISTANCE    (R)  = OHM
  ELECTRIC POTENTIAL = VOLT

 INPUT  UNITS ARE ALSO SET TO MKS 

 *** ANSYS - ENGINEERING ANALYSIS SYSTEM  RELEASE 2020 R1          20.1     ***
 DISTRIBUTED ANSYS Mechanical Enterprise                       

 20120530  VERSION=WINDOWS x64   18:51:37  APR 05, 2020 CP=      0.656

 relay--EM Transient (E5)                                                      



          ***** ANSYS ANALYSIS DEFINITION (PREP7) *****
 *********** Nodes for the whole assembly ***********
 *********** Elements for Body 1 "Relay" ***********
 *********** Elements for Body 2 "Contact 1" ***********
 *********** Elements for Body 3 "Contact 2" ***********
 *********** Elements for Body 4 "Contact 3" ***********
 *********** Elements for Body 5 "Contact 4" ***********
 *********** Elements for Body 6 "Contact 5" ***********
 *********** Elements for Body 7 "Contact 6" ***********
 *********** Elements for Body 8 "Contact 7" ***********
 *********** Elements for Body 9 "Contact 8" ***********
 *********** Elements for Body 10 "Substrate" ***********
 *********** Send User Defined Coordinate System(s) ***********
 *********** Set Reference Temperature ***********
 *********** Send Materials ***********
 *********** Create Contact "Contact Region 10" ***********
             Real Constant Set For Above Contact Is 12 & 11
 *********** Create Contact "Contact Region 11" ***********
             Real Constant Set For Above Contact Is 14 & 13
 *********** Create Contact "Contact Region 12" ***********
             Real Constant Set For Above Contact Is 16 & 15
 *********** Create Contact "Contact Region 13" ***********
             Real Constant Set For Above Contact Is 18 & 17
 *********** Create Contact "Contact Region 14" ***********
             Real Constant Set For Above Contact Is 20 & 19
 *********** Create Contact "Contact Region 15" ***********
             Real Constant Set For Above Contact Is 22 & 21
 *********** Create Contact "Contact Region 16" ***********
             Real Constant Set For Above Contact Is 24 & 23
 *********** Create Contact "Contact Region 17" ***********
             Real Constant Set For Above Contact Is 26 & 25
 *********** Create Contact "Contact Region 9" ***********
             Real Constant Set For Above Contact Is 28 & 27
 *********** Fixed Supports ***********
 *********** Create Structural MEMS Load ***********
  
 *** EMTGEN Command Macro
  

 *** NOTE *** Display device has not yet been specified with the /SHOW command.  Display commands ignored. 

  LISTING OF THE DATA ON FILE _emtgen.out
  
  ____________________ EMTGEN MACRO SUMMARY ________________________
  
  Macro has generated successfully 1394 TRANS126 elements.
  
  Component of structural boundary nodes: _CMMEMS179 .
  Component name of generated EMT elements = EMTELM .
  Component name of generated EMT plane nodes = _CM179 .
  Active structural DOF for TRANS126 elements = UZ .
  Initial gap between I and J nodes of EMT element = -1.E-07 .
  Minimal gap between I and J nodes = 5.E-09 .
  Modulus of elasticity for EMT contact stiffness = 1.45E+09 .
  Free-space permittivity value = 8.854E-12 .
  EMT stiffness method = AUGM .
  
  ______________________________________________________________________


 ***** ROUTINE COMPLETED *****  CP =         9.234


 --- Number of total nodes = 12744
 --- Number of contact elements = 1726
 --- Number of spring elements = 0
 --- Number of bearing elements = 0
 --- Number of solid elements = 4550
 --- Number of condensed parts = 0
 --- Number of total elements = 7670

 *GET  _WALLBSOL  FROM  ACTI  ITEM=TIME WALL  VALUE=  18.8627778    
 ****************************************************************************
 *************************    SOLUTION       ********************************
 ****************************************************************************

 *****  ANSYS SOLUTION ROUTINE  *****


 PERFORM A TRANSIENT ANALYSIS
  THIS WILL BE A NEW ANALYSIS

 LARGE DEFORMATION ANALYSIS

 STEP BOUNDARY CONDITION KEY= 1

 PARAMETER _THICKRATIO =     0.000000000    

 USE SPARSE MATRIX DIRECT SOLVER

 CONTACT INFORMATION PRINTOUT LEVEL       1

 DO NOT COMBINE ELEMENT MATRIX FILES (.emat) AFTER DISTRIBUTED PARALLEL SOLUTION

 DO NOT COMBINE ELEMENT SAVE DATA FILES (.esav) AFTER DISTRIBUTED PARALLEL SOLUTION

 PERFORM A FULL TRANSIENT ANALYSIS
  USING HHT ALGORITHM

 USE SETTINGS FOR IMPACT APPLICATIONS
 SECOND ORDER TRANSIENT PARAMETERS
   GAMMA=  0.000      (ALPHA= 0.2500      DELTA= 0.5000    )

 USE DEFAULT FIRST ORDER TRANSIENT PARAMETER THETA= 0.5000    

 USE DEFAULT FIRST ORDER OSCILLATION LIMIT OF  0.5000     FOR AUTO LOADING
  WITH A TOLERANCE OF  0.2000    

 NLDIAG: Nonlinear diagnostics CONT option is set to ON. 
         Writing frequency : each ITERATION.

 DEFINE RESTART CONTROL FOR LOADSTEP LAST
 AT FREQUENCY OF LAST AND NUMBER FOR OVERWRITE IS   -1

 DELETE RESTART FILES OF ENDSTEP
 ****************************************************
 ******************* SOLVE FOR LS 1 OF 3 ****************

 PRINTOUT RESUMED BY /GOP

 SPECIFIED CONSTRAINT VOLT FOR PICKED NODES 
 REAL=_LOADVARI179   IMAG=  0.00000000    

 SPECIFIED CONSTRAINT VOLT FOR PICKED NODES 
 REAL=  0.00000000       IMAG=  0.00000000    

 SPECIFIED CONSTRAINT UX   FOR PICKED NODES 
 REAL=  0.00000000       IMAG=  0.00000000    

 SPECIFIED CONSTRAINT UY   FOR PICKED NODES 
 REAL=  0.00000000       IMAG=  0.00000000    

 SPECIFIED CONSTRAINT UZ   FOR PICKED NODES 
 REAL=  0.00000000       IMAG=  0.00000000    

 ALL SELECT   FOR ITEM=NODE COMPONENT=    
  IN RANGE         1 TO      12744 STEP          1

      12744  NODES (OF      12744  DEFINED) SELECTED BY NSEL  COMMAND.

 ALL SELECT   FOR ITEM=ELEM COMPONENT=    
  IN RANGE         1 TO      11320 STEP          1

       7670  ELEMENTS (OF       7670  DEFINED) SELECTED BY  ESEL  COMMAND.

 USE AUTOMATIC TIME STEPPING THIS LOAD STEP

 USE      20 SUBSTEPS INITIALLY THIS LOAD STEP FOR ALL  DEGREES OF FREEDOM
 FOR AUTOMATIC TIME STEPPING:
   USE    100 SUBSTEPS AS A MAXIMUM
   USE     10 SUBSTEPS AS A MINIMUM

 TIME= 0.15000E-06

 INCLUDE TRANSIENT EFFECTS FOR  ALL DEGREES OF FREEDOM THIS LOAD STEP

 ERASE THE CURRENT DATABASE OUTPUT CONTROL TABLE.


 WRITE ALL  ITEMS TO THE DATABASE WITH A FREQUENCY OF NONE
   FOR ALL APPLICABLE ENTITIES

 WRITE NSOL ITEMS TO THE DATABASE WITH A FREQUENCY OF ALL 
   FOR ALL APPLICABLE ENTITIES

 WRITE RSOL ITEMS TO THE DATABASE WITH A FREQUENCY OF ALL 
   FOR ALL APPLICABLE ENTITIES

 WRITE EANG ITEMS TO THE DATABASE WITH A FREQUENCY OF ALL 
   FOR ALL APPLICABLE ENTITIES

 WRITE ETMP ITEMS TO THE DATABASE WITH A FREQUENCY OF ALL 
   FOR ALL APPLICABLE ENTITIES

 WRITE VENG ITEMS TO THE DATABASE WITH A FREQUENCY OF ALL 
   FOR ALL APPLICABLE ENTITIES

 WRITE STRS ITEMS TO THE DATABASE WITH A FREQUENCY OF ALL 
   FOR ALL APPLICABLE ENTITIES

 WRITE EPEL ITEMS TO THE DATABASE WITH A FREQUENCY OF ALL 
   FOR ALL APPLICABLE ENTITIES

 WRITE EPPL ITEMS TO THE DATABASE WITH A FREQUENCY OF ALL 
   FOR ALL APPLICABLE ENTITIES

 WRITE CONT ITEMS TO THE DATABASE WITH A FREQUENCY OF ALL 
   FOR ALL APPLICABLE ENTITIES

 WRITE V    ITEMS TO THE DATABASE WITH A FREQUENCY OF ALL 
   FOR ALL APPLICABLE ENTITIES

 WRITE A    ITEMS TO THE DATABASE WITH A FREQUENCY OF ALL 
   FOR ALL APPLICABLE ENTITIES

 PARAMETER ARG1 =     4.700000000    

 PARAMETER ARG2 =    0.1000000000    

 PARAMETER EPSR =     4.700000000    

 PARAMETER KN =    0.1000000000    

 FINISH SOLUTION PROCESSING


 ***** ROUTINE COMPLETED *****  CP =         9.250



 *** ANSYS - ENGINEERING ANALYSIS SYSTEM  RELEASE 2020 R1          20.1     ***
 DISTRIBUTED ANSYS Mechanical Enterprise                       

 20120530  VERSION=WINDOWS x64   18:51:46  APR 05, 2020 CP=      9.250

                                                                               



          ***** ANSYS ANALYSIS DEFINITION (PREP7) *****

 SELECT       FOR ITEM=ENAM COMPONENT=    
  IN RANGE       126 TO        126 STEP          1

       1394  ELEMENTS (OF       7670  DEFINED) SELECTED BY  ESEL  COMMAND.

 *GET  NELEMS    FROM  ELEM  ITEM=COUN           VALUE=  1394.00000    

 PARAMETER ELM =     0.000000000    

 *DO LOOP ON PARAMETER= I FROM  1.0000     TO  1394.0     BY  1.0000    

 PARAMETER ELM =     9927.000000    

 *GET  RNUM      FROM  ELEM      9927  ITEM=ATTR REAL      VALUE=  29.0000000    

 *GET  R7        FROM  RCON     29  ITEM=CONS 7     VALUE= 0.430479885E-25

 PARAMETER R7_NEW =    0.2023255458E-24

 MODIFY REAL CONSTANTS FOR SET     29  STARTING WITH  7  NEW VALUES ARE

   0.20233E-24   0.0000       0.0000       0.0000       0.0000       0.0000    

 *GET  R5        FROM  RCON     29  ITEM=CONS 5     VALUE=  70.4987387    

 PARAMETER R5_NEW =     7.049873873    

 MODIFY REAL CONSTANTS FOR SET     29  STARTING WITH  5  NEW VALUES ARE

    7.0499       0.0000      0.20233E-24   0.0000       0.0000       0.0000    

 *ENDDO  INDEX= I                               


 ***** ROUTINE COMPLETED *****  CP =         9.516



 *****  ANSYS SOLUTION ROUTINE  *****

 SELECT ALL ENTITIES OF TYPE= ALL  AND BELOW

 *GET  ANSINTER_  FROM  ACTI  ITEM=INT        VALUE=  0.00000000    

 *IF  ANSINTER_                         ( =   0.00000     )  NE  
      0                                 ( =   0.00000     )  THEN    

 *ENDIF

 *** NOTE ***                            CP =       9.516   TIME= 18:51:46
 The automatic domain decomposition logic has selected the MESH domain   
 decomposition method with 2 processes per solution.                     

 *****  ANSYS SOLVE    COMMAND  *****

 *** NOTE ***                            CP =       9.531   TIME= 18:51:46
 There is no title defined for this analysis.                            

 *** WARNING ***                         CP =       9.531   TIME= 18:51:46
 Element shape checking is currently inactive.  Issue SHPP,ON or         
 SHPP,WARN to reactivate, if desired.                                    

 *** NOTE ***                            CP =       9.531   TIME= 18:51:46
 The model data was checked and warning messages were found.             
  Please review output or errors file ( C:\Users\Akash                   
 Levy\Documents\NEM-Relay-CAD\_ProjectScratch\Scr77DF\file0.err ) for    
 these warning messages.                                                 

 *** SELECTION OF ELEMENT TECHNOLOGIES FOR APPLICABLE ELEMENTS ***
      --- GIVE SUGGESTIONS AND RESET THE KEY OPTIONS ---

 ELEMENT TYPE    1 IS SOLID187. IT IS NOT ASSOCIATED WITH FULLY INCOMPRESSIBLE
 HYPERELASTIC MATERIALS. NO SUGGESTION IS AVAILABLE AND NO RESETTING IS NEEDED.

 ELEMENT TYPE    2 IS SOLID186. KEYOPT(2)=0 IS SUGGESTED AND HAS BEEN RESET.
  KEYOPT(1-12)=    0    0    0    0    0    0    0    0    0    0    0    0

 ELEMENT TYPE    3 IS SOLID186. KEYOPT(2)=0 IS SUGGESTED AND HAS BEEN RESET.
  KEYOPT(1-12)=    0    0    0    0    0    0    0    0    0    0    0    0

 ELEMENT TYPE    4 IS SOLID186. KEYOPT(2)=0 IS SUGGESTED AND HAS BEEN RESET.
  KEYOPT(1-12)=    0    0    0    0    0    0    0    0    0    0    0    0

 ELEMENT TYPE    5 IS SOLID186. KEYOPT(2)=0 IS SUGGESTED AND HAS BEEN RESET.
  KEYOPT(1-12)=    0    0    0    0    0    0    0    0    0    0    0    0

 ELEMENT TYPE    6 IS SOLID187. IT IS NOT ASSOCIATED WITH FULLY INCOMPRESSIBLE
 HYPERELASTIC MATERIALS. NO SUGGESTION IS AVAILABLE AND NO RESETTING IS NEEDED.

 ELEMENT TYPE    7 IS SOLID187. IT IS NOT ASSOCIATED WITH FULLY INCOMPRESSIBLE
 HYPERELASTIC MATERIALS. NO SUGGESTION IS AVAILABLE AND NO RESETTING IS NEEDED.

 ELEMENT TYPE    8 IS SOLID187. IT IS NOT ASSOCIATED WITH FULLY INCOMPRESSIBLE
 HYPERELASTIC MATERIALS. NO SUGGESTION IS AVAILABLE AND NO RESETTING IS NEEDED.

 ELEMENT TYPE    9 IS SOLID187. IT IS NOT ASSOCIATED WITH FULLY INCOMPRESSIBLE
 HYPERELASTIC MATERIALS. NO SUGGESTION IS AVAILABLE AND NO RESETTING IS NEEDED.

 ELEMENT TYPE   10 IS SOLID186. KEYOPT(2)=0 IS SUGGESTED AND HAS BEEN RESET.
  KEYOPT(1-12)=    0    0    0    0    0    0    0    0    0    0    0    0



 *** ANSYS - ENGINEERING ANALYSIS SYSTEM  RELEASE 2020 R1          20.1     ***
 DISTRIBUTED ANSYS Mechanical Enterprise                       

 20120530  VERSION=WINDOWS x64   18:51:46  APR 05, 2020 CP=      9.531

                                                                               



                       S O L U T I O N   O P T I O N S

   PROBLEM DIMENSIONALITY. . . . . . . . . . . . .3-D                  
   DEGREES OF FREEDOM. . . . . . UX   UY   UZ   VOLT
   ANALYSIS TYPE . . . . . . . . . . . . . . . . .TRANSIENT            
      SOLUTION METHOD. . . . . . . . . . . . . . .FULL                 
   OFFSET TEMPERATURE FROM ABSOLUTE ZERO . . . . .  273.15    
   NONLINEAR GEOMETRIC EFFECTS . . . . . . . . . .ON
   EQUATION SOLVER OPTION. . . . . . . . . . . . .SPARSE             
   NEWTON-RAPHSON OPTION . . . . . . . . . . . . .PROGRAM CHOSEN   
   GLOBALLY ASSEMBLED MATRIX . . . . . . . . . . .UNSYMMETRIC

 *** NOTE ***                            CP =       9.547   TIME= 18:51:46
 The Solution Control Option is only valid for single field structural,  
 single field thermal, single field diffusion, coupled                   
 thermal-diffusion analyses and coupled-field analyses with structural   
 degrees of freedom.  The SOLCONTROL,ON command (if present) has been    
 de-activated.                                                           

 *** NOTE ***                            CP =       9.547   TIME= 18:51:46
 This nonlinear analysis defaults to using the full Newton-Raphson       
 solution procedure.  This can be modified using the NROPT command.      

 *** NOTE ***                            CP =       9.703   TIME= 18:51:47
 Symmetric Deformable- deformable contact pair identified by real        
 constant set 11 and contact element type 11 has been set up.  The       
 companion pair has real constant set ID 12.  Both pairs should have     
 the same behavior.                                                      
 ANSYS will deactivate the current pair and keep its companion pair,     
 resulting in asymmetric contact.                                        
 Small sliding logic is assumed
 Contact algorithm: Augmented Lagrange method
 Contact detection at: Gauss integration point
 Contact stiffness factor FKN                  10.000    
 The resulting initial contact stiffness      0.24380E+21
 Default penetration tolerance factor FTOLN   0.10000    
 The resulting penetration tolerance          0.11895E-07
 Default opening contact stiffness OPSF will be used.
 Default tangent stiffness factor FKT          1.0000    
 Default elastic slip factor SLTOL            0.50000E-02
 The resulting elastic slip tolerance         0.82910E-09
 Update contact stiffness at each iteration
 Default Max. friction stress TAUMAX          0.10000E+21
 Average contact surface length               0.16582E-06
 Average contact pair depth                   0.11895E-06
 Default pinball region factor PINB           0.50000    
 The resulting pinball region                 0.59475E-07
 Initial penetration/gap is excluded.
 Bonded contact (always) is defined.

 *** NOTE ***                            CP =       9.703   TIME= 18:51:47
 Max.  Initial penetration 0 was detected between contact element 8261   
 and target element 8364.                                                
 ****************************************
  

 *** NOTE ***                            CP =       9.703   TIME= 18:51:47
 Symmetric Deformable- deformable contact pair identified by real        
 constant set 12 and contact element type 11 has been set up.  The       
 companion pair has real constant set ID 11.  Both pairs should have     
 the same behavior.                                                      
 ANSYS will keep the current pair and deactivate its companion pair,     
 resulting in asymmetric contact.                                        
 Small sliding logic is assumed
 Contact algorithm: Augmented Lagrange method
 Contact detection at: Gauss integration point
 Contact stiffness factor FKN                  10.000    
 The resulting initial contact stiffness      0.24380E+21
 Default penetration tolerance factor FTOLN   0.10000    
 The resulting penetration tolerance          0.24439E-08
 Default opening contact stiffness OPSF will be used.
 Default tangent stiffness factor FKT          1.0000    
 Default elastic slip factor SLTOL            0.50000E-02
 The resulting elastic slip tolerance         0.31213E-09
 Update contact stiffness at each iteration
 Default Max. friction stress TAUMAX          0.10000E+21
 Average contact surface length               0.62426E-07
 Average contact pair depth                   0.24439E-07
 Default pinball region factor PINB           0.50000    
 The resulting pinball region                 0.12219E-07
 Initial penetration/gap is excluded.
 Bonded contact (always) is defined.

 *** NOTE ***                            CP =       9.703   TIME= 18:51:47
 Max.  Initial penetration 0 was detected between contact element 8321   
 and target element 8219.                                                
 ****************************************
  

 *** NOTE ***                            CP =       9.703   TIME= 18:51:47
 Symmetric Deformable- deformable contact pair identified by real        
 constant set 13 and contact element type 13 has been set up.  The       
 companion pair has real constant set ID 14.  Both pairs should have     
 the same behavior.                                                      
 ANSYS will deactivate the current pair and keep its companion pair,     
 resulting in asymmetric contact.                                        
 Small sliding logic is assumed
 Contact algorithm: Augmented Lagrange method
 Contact detection at: Gauss integration point
 Contact stiffness factor FKN                  10.000    
 The resulting initial contact stiffness      0.26104E+21
 Default penetration tolerance factor FTOLN   0.10000    
 The resulting penetration tolerance          0.11109E-07
 Default opening contact stiffness OPSF will be used.
 Default tangent stiffness factor FKT          1.0000    
 Default elastic slip factor SLTOL            0.50000E-02
 The resulting elastic slip tolerance         0.82189E-09
 Update contact stiffness at each iteration
 Default Max. friction stress TAUMAX          0.10000E+21
 Average contact surface length               0.16438E-06
 Average contact pair depth                   0.11109E-06
 Default pinball region factor PINB           0.50000    
 The resulting pinball region                 0.55547E-07
 Initial penetration/gap is excluded.
 Bonded contact (always) is defined.

 *** NOTE ***                            CP =       9.703   TIME= 18:51:47
 Max.  Initial penetration 0 was detected between contact element 8458   
 and target element 8560.                                                
 ****************************************
  

 *** NOTE ***                            CP =       9.703   TIME= 18:51:47
 Symmetric Deformable- deformable contact pair identified by real        
 constant set 14 and contact element type 13 has been set up.  The       
 companion pair has real constant set ID 13.  Both pairs should have     
 the same behavior.                                                      
 ANSYS will keep the current pair and deactivate its companion pair,     
 resulting in asymmetric contact.                                        
 Small sliding logic is assumed
 Contact algorithm: Augmented Lagrange method
 Contact detection at: Gauss integration point
 Contact stiffness factor FKN                  10.000    
 The resulting initial contact stiffness      0.26104E+21
 Default penetration tolerance factor FTOLN   0.10000    
 The resulting penetration tolerance          0.24439E-08
 Default opening contact stiffness OPSF will be used.
 Default tangent stiffness factor FKT          1.0000    
 Default elastic slip factor SLTOL            0.50000E-02
 The resulting elastic slip tolerance         0.31213E-09
 Update contact stiffness at each iteration
 Default Max. friction stress TAUMAX          0.10000E+21
 Average contact surface length               0.62426E-07
 Average contact pair depth                   0.24439E-07
 Default pinball region factor PINB           0.50000    
 The resulting pinball region                 0.12219E-07
 Initial penetration/gap is excluded.
 Bonded contact (always) is defined.

 *** NOTE ***                            CP =       9.703   TIME= 18:51:47
 Max.  Initial penetration 0 was detected between contact element 8517   
 and target element 8406.                                                
 ****************************************
  

 *** NOTE ***                            CP =       9.703   TIME= 18:51:47
 Symmetric Deformable- deformable contact pair identified by real        
 constant set 15 and contact element type 15 has been set up.  The       
 companion pair has real constant set ID 16.  Both pairs should have     
 the same behavior.                                                      
 ANSYS will deactivate the current pair and keep its companion pair,     
 resulting in asymmetric contact.                                        
 Small sliding logic is assumed
 Contact algorithm: Augmented Lagrange method
 Contact detection at: Gauss integration point
 Contact stiffness factor FKN                  10.000    
 The resulting initial contact stiffness      0.23942E+21
 Default penetration tolerance factor FTOLN   0.10000    
 The resulting penetration tolerance          0.12112E-07
 Default opening contact stiffness OPSF will be used.
 Default tangent stiffness factor FKT          1.0000    
 Default elastic slip factor SLTOL            0.50000E-02
 The resulting elastic slip tolerance         0.82639E-09
 Update contact stiffness at each iteration
 Default Max. friction stress TAUMAX          0.10000E+21
 Average contact surface length               0.16528E-06
 Average contact pair depth                   0.12112E-06
 Default pinball region factor PINB           0.50000    
 The resulting pinball region                 0.60562E-07
 Initial penetration/gap is excluded.
 Bonded contact (always) is defined.

 *** NOTE ***                            CP =       9.703   TIME= 18:51:47
 Max.  Initial penetration 0 was detected between contact element 8655   
 and target element 8785.                                                
 ****************************************
  

 *** NOTE ***                            CP =       9.703   TIME= 18:51:47
 Symmetric Deformable- deformable contact pair identified by real        
 constant set 16 and contact element type 15 has been set up.  The       
 companion pair has real constant set ID 15.  Both pairs should have     
 the same behavior.                                                      
 ANSYS will keep the current pair and deactivate its companion pair,     
 resulting in asymmetric contact.                                        
 Small sliding logic is assumed
 Contact algorithm: Augmented Lagrange method
 Contact detection at: Gauss integration point
 Contact stiffness factor FKN                  10.000    
 The resulting initial contact stiffness      0.23942E+21
 Default penetration tolerance factor FTOLN   0.10000    
 The resulting penetration tolerance          0.26261E-08
 Default opening contact stiffness OPSF will be used.
 Default tangent stiffness factor FKT          1.0000    
 Default elastic slip factor SLTOL            0.50000E-02
 The resulting elastic slip tolerance         0.31213E-09
 Update contact stiffness at each iteration
 Default Max. friction stress TAUMAX          0.10000E+21
 Average contact surface length               0.62426E-07
 Average contact pair depth                   0.26261E-07
 Default pinball region factor PINB           0.50000    
 The resulting pinball region                 0.13130E-07
 Initial penetration/gap is excluded.
 Bonded contact (always) is defined.

 *** NOTE ***                            CP =       9.703   TIME= 18:51:47
 Max.  Initial penetration 0 was detected between contact element 8713   
 and target element 8599.                                                
 ****************************************
  

 *** NOTE ***                            CP =       9.703   TIME= 18:51:47
 Symmetric Deformable- deformable contact pair identified by real        
 constant set 17 and contact element type 17 has been set up.  The       
 companion pair has real constant set ID 18.  Both pairs should have     
 the same behavior.                                                      
 ANSYS will deactivate the current pair and keep its companion pair,     
 resulting in asymmetric contact.                                        
 Small sliding logic is assumed
 Contact algorithm: Augmented Lagrange method
 Contact detection at: Gauss integration point
 Contact stiffness factor FKN                  10.000    
 The resulting initial contact stiffness      0.23710E+21
 Default penetration tolerance factor FTOLN   0.10000    
 The resulting penetration tolerance          0.12231E-07
 Default opening contact stiffness OPSF will be used.
 Default tangent stiffness factor FKT          1.0000    
 Default elastic slip factor SLTOL            0.50000E-02
 The resulting elastic slip tolerance         0.84863E-09
 Update contact stiffness at each iteration
 Default Max. friction stress TAUMAX          0.10000E+21
 Average contact surface length               0.16973E-06
 Average contact pair depth                   0.12231E-06
 Default pinball region factor PINB           0.50000    
 The resulting pinball region                 0.61156E-07
 Initial penetration/gap is excluded.
 Bonded contact (always) is defined.

 *** NOTE ***                            CP =       9.703   TIME= 18:51:47
 Max.  Initial penetration 0 was detected between contact element 8848   
 and target element 8949.                                                
 ****************************************
  

 *** NOTE ***                            CP =       9.703   TIME= 18:51:47
 Symmetric Deformable- deformable contact pair identified by real        
 constant set 18 and contact element type 17 has been set up.  The       
 companion pair has real constant set ID 17.  Both pairs should have     
 the same behavior.                                                      
 ANSYS will keep the current pair and deactivate its companion pair,     
 resulting in asymmetric contact.                                        
 Small sliding logic is assumed
 Contact algorithm: Augmented Lagrange method
 Contact detection at: Gauss integration point
 Contact stiffness factor FKN                  10.000    
 The resulting initial contact stiffness      0.23710E+21
 Default penetration tolerance factor FTOLN   0.10000    
 The resulting penetration tolerance          0.26261E-08
 Default opening contact stiffness OPSF will be used.
 Default tangent stiffness factor FKT          1.0000    
 Default elastic slip factor SLTOL            0.50000E-02
 The resulting elastic slip tolerance         0.31213E-09
 Update contact stiffness at each iteration
 Default Max. friction stress TAUMAX          0.10000E+21
 Average contact surface length               0.62426E-07
 Average contact pair depth                   0.26261E-07
 Default pinball region factor PINB           0.50000    
 The resulting pinball region                 0.13130E-07
 Initial penetration/gap is excluded.
 Bonded contact (always) is defined.

 *** NOTE ***                            CP =       9.703   TIME= 18:51:47
 Max.  Initial penetration 0 was detected between contact element 8905   
 and target element 8794.                                                
 ****************************************
  

 *** NOTE ***                            CP =       9.703   TIME= 18:51:47
 Symmetric Deformable- deformable contact pair identified by real        
 constant set 19 and contact element type 19 has been set up.  The       
 companion pair has real constant set ID 20.  Both pairs should have     
 the same behavior.                                                      
 ANSYS will deactivate the current pair and keep its companion pair,     
 resulting in asymmetric contact.                                        
 Small sliding logic is assumed
 Contact algorithm: Augmented Lagrange method
 Contact detection at: Gauss integration point
 Contact stiffness factor FKN                  10.000    
 The resulting initial contact stiffness      0.28099E+21
 Default penetration tolerance factor FTOLN   0.10000    
 The resulting penetration tolerance          0.10320E-07
 Default opening contact stiffness OPSF will be used.
 Default tangent stiffness factor FKT          1.0000    
 Default elastic slip factor SLTOL            0.50000E-02
 The resulting elastic slip tolerance         0.75699E-09
 Update contact stiffness at each iteration
 Default Max. friction stress TAUMAX          0.10000E+21
 Average contact surface length               0.15140E-06
 Average contact pair depth                   0.10320E-06
 Default pinball region factor PINB           0.50000    
 The resulting pinball region                 0.51602E-07
 Initial penetration/gap is excluded.
 Bonded contact (always) is defined.

 *** NOTE ***                            CP =       9.703   TIME= 18:51:47
 Max.  Initial penetration 0 was detected between contact element 9042   
 and target element 9170.                                                
 ****************************************
  

 *** NOTE ***                            CP =       9.703   TIME= 18:51:47
 Symmetric Deformable- deformable contact pair identified by real        
 constant set 20 and contact element type 19 has been set up.  The       
 companion pair has real constant set ID 19.  Both pairs should have     
 the same behavior.                                                      
 ANSYS will keep the current pair and deactivate its companion pair,     
 resulting in asymmetric contact.                                        
 Small sliding logic is assumed
 Contact algorithm: Augmented Lagrange method
 Contact detection at: Gauss integration point
 Contact stiffness factor FKN                  10.000    
 The resulting initial contact stiffness      0.28099E+21
 Default penetration tolerance factor FTOLN   0.10000    
 The resulting penetration tolerance          0.26943E-08
 Default opening contact stiffness OPSF will be used.
 Default tangent stiffness factor FKT          1.0000    
 Default elastic slip factor SLTOL            0.50000E-02
 The resulting elastic slip tolerance         0.37864E-09
 Update contact stiffness at each iteration
 Default Max. friction stress TAUMAX          0.10000E+21
 Average contact surface length               0.75727E-07
 Average contact pair depth                   0.26943E-07
 Default pinball region factor PINB           0.50000    
 The resulting pinball region                 0.13471E-07
 Initial penetration/gap is excluded.
 Bonded contact (always) is defined.

 *** NOTE ***                            CP =       9.703   TIME= 18:51:47
 Max.  Initial penetration 0 was detected between contact element 9101   
 and target element 9003.                                                
 ****************************************
  

 *** NOTE ***                            CP =       9.703   TIME= 18:51:47
 Symmetric Deformable- deformable contact pair identified by real        
 constant set 21 and contact element type 21 has been set up.  The       
 companion pair has real constant set ID 22.  Both pairs should have     
 the same behavior.                                                      
 ANSYS will deactivate the current pair and keep its companion pair,     
 resulting in asymmetric contact.                                        
 Small sliding logic is assumed
 Contact algorithm: Augmented Lagrange method
 Contact detection at: Gauss integration point
 Contact stiffness factor FKN                  10.000    
 The resulting initial contact stiffness      0.25728E+21
 Default penetration tolerance factor FTOLN   0.10000    
 The resulting penetration tolerance          0.11272E-07
 Default opening contact stiffness OPSF will be used.
 Default tangent stiffness factor FKT          1.0000    
 Default elastic slip factor SLTOL            0.50000E-02
 The resulting elastic slip tolerance         0.77586E-09
 Update contact stiffness at each iteration
 Default Max. friction stress TAUMAX          0.10000E+21
 Average contact surface length               0.15517E-06
 Average contact pair depth                   0.11272E-06
 Default pinball region factor PINB           0.50000    
 The resulting pinball region                 0.56359E-07
 Initial penetration/gap is excluded.
 Bonded contact (always) is defined.

 *** NOTE ***                            CP =       9.703   TIME= 18:51:47
 Max.  Initial penetration 0 was detected between contact element 9259   
 and target element 9388.                                                
 ****************************************
  

 *** NOTE ***                            CP =       9.703   TIME= 18:51:47
 Symmetric Deformable- deformable contact pair identified by real        
 constant set 22 and contact element type 21 has been set up.  The       
 companion pair has real constant set ID 21.  Both pairs should have     
 the same behavior.                                                      
 ANSYS will keep the current pair and deactivate its companion pair,     
 resulting in asymmetric contact.                                        
 Small sliding logic is assumed
 Contact algorithm: Augmented Lagrange method
 Contact detection at: Gauss integration point
 Contact stiffness factor FKN                  10.000    
 The resulting initial contact stiffness      0.25728E+21
 Default penetration tolerance factor FTOLN   0.10000    
 The resulting penetration tolerance          0.26962E-08
 Default opening contact stiffness OPSF will be used.
 Default tangent stiffness factor FKT          1.0000    
 Default elastic slip factor SLTOL            0.50000E-02
 The resulting elastic slip tolerance         0.37034E-09
 Update contact stiffness at each iteration
 Default Max. friction stress TAUMAX          0.10000E+21
 Average contact surface length               0.74068E-07
 Average contact pair depth                   0.26962E-07
 Default pinball region factor PINB           0.50000    
 The resulting pinball region                 0.13481E-07
 Initial penetration/gap is excluded.
 Bonded contact (always) is defined.

 *** NOTE ***                            CP =       9.703   TIME= 18:51:47
 Max.  Initial penetration 0 was detected between contact element 9311   
 and target element 9209.                                                
 ****************************************
  

 *** NOTE ***                            CP =       9.703   TIME= 18:51:47
 Symmetric Deformable- deformable contact pair identified by real        
 constant set 23 and contact element type 23 has been set up.  The       
 companion pair has real constant set ID 24.  Both pairs should have     
 the same behavior.                                                      
 ANSYS will deactivate the current pair and keep its companion pair,     
 resulting in asymmetric contact.                                        
 Small sliding logic is assumed
 Contact algorithm: Augmented Lagrange method
 Contact detection at: Gauss integration point
 Contact stiffness factor FKN                  10.000    
 The resulting initial contact stiffness      0.26268E+21
 Default penetration tolerance factor FTOLN   0.10000    
 The resulting penetration tolerance          0.11040E-07
 Default opening contact stiffness OPSF will be used.
 Default tangent stiffness factor FKT          1.0000    
 Default elastic slip factor SLTOL            0.50000E-02
 The resulting elastic slip tolerance         0.82214E-09
 Update contact stiffness at each iteration
 Default Max. friction stress TAUMAX          0.10000E+21
 Average contact surface length               0.16443E-06
 Average contact pair depth                   0.11040E-06
 Default pinball region factor PINB           0.50000    
 The resulting pinball region                 0.55199E-07
 Initial penetration/gap is excluded.
 Bonded contact (always) is defined.

 *** NOTE ***                            CP =       9.703   TIME= 18:51:47
 Max.  Initial penetration 0 was detected between contact element 9466   
 and target element 9600.                                                
 ****************************************
  

 *** NOTE ***                            CP =       9.703   TIME= 18:51:47
 Symmetric Deformable- deformable contact pair identified by real        
 constant set 24 and contact element type 23 has been set up.  The       
 companion pair has real constant set ID 23.  Both pairs should have     
 the same behavior.                                                      
 ANSYS will keep the current pair and deactivate its companion pair,     
 resulting in asymmetric contact.                                        
 Small sliding logic is assumed
 Contact algorithm: Augmented Lagrange method
 Contact detection at: Gauss integration point
 Contact stiffness factor FKN                  10.000    
 The resulting initial contact stiffness      0.26268E+21
 Default penetration tolerance factor FTOLN   0.10000    
 The resulting penetration tolerance          0.26111E-08
 Default opening contact stiffness OPSF will be used.
 Default tangent stiffness factor FKT          1.0000    
 Default elastic slip factor SLTOL            0.50000E-02
 The resulting elastic slip tolerance         0.36457E-09
 Update contact stiffness at each iteration
 Default Max. friction stress TAUMAX          0.10000E+21
 Average contact surface length               0.72915E-07
 Average contact pair depth                   0.26111E-07
 Default pinball region factor PINB           0.50000    
 The resulting pinball region                 0.13056E-07
 Initial penetration/gap is excluded.
 Bonded contact (always) is defined.

 *** NOTE ***                            CP =       9.703   TIME= 18:51:47
 Max.  Initial penetration 0 was detected between contact element 9513   
 and target element 9460.                                                
 ****************************************
  

 *** NOTE ***                            CP =       9.703   TIME= 18:51:47
 Symmetric Deformable- deformable contact pair identified by real        
 constant set 25 and contact element type 25 has been set up.  The       
 companion pair has real constant set ID 26.  Both pairs should have     
 the same behavior.                                                      
 ANSYS will deactivate the current pair and keep its companion pair,     
 resulting in asymmetric contact.                                        
 Small sliding logic is assumed
 Contact algorithm: Augmented Lagrange method
 Contact detection at: Gauss integration point
 Contact stiffness factor FKN                  10.000    
 The resulting initial contact stiffness      0.27861E+21
 Default penetration tolerance factor FTOLN   0.10000    
 The resulting penetration tolerance          0.10409E-07
 Default opening contact stiffness OPSF will be used.
 Default tangent stiffness factor FKT          1.0000    
 Default elastic slip factor SLTOL            0.50000E-02
 The resulting elastic slip tolerance         0.76866E-09
 Update contact stiffness at each iteration
 Default Max. friction stress TAUMAX          0.10000E+21
 Average contact surface length               0.15373E-06
 Average contact pair depth                   0.10409E-06
 Default pinball region factor PINB           0.50000    
 The resulting pinball region                 0.52044E-07
 Initial penetration/gap is excluded.
 Bonded contact (always) is defined.

 *** NOTE ***                            CP =       9.703   TIME= 18:51:47
 Max.  Initial penetration 0 was detected between contact element 9681   
 and target element 9826.                                                
 ****************************************
  

 *** NOTE ***                            CP =       9.703   TIME= 18:51:47
 Symmetric Deformable- deformable contact pair identified by real        
 constant set 26 and contact element type 25 has been set up.  The       
 companion pair has real constant set ID 25.  Both pairs should have     
 the same behavior.                                                      
 ANSYS will keep the current pair and deactivate its companion pair,     
 resulting in asymmetric contact.                                        
 Small sliding logic is assumed
 Contact algorithm: Augmented Lagrange method
 Contact detection at: Gauss integration point
 Contact stiffness factor FKN                  10.000    
 The resulting initial contact stiffness      0.27861E+21
 Default penetration tolerance factor FTOLN   0.10000    
 The resulting penetration tolerance          0.25938E-08
 Default opening contact stiffness OPSF will be used.
 Default tangent stiffness factor FKT          1.0000    
 Default elastic slip factor SLTOL            0.50000E-02
 The resulting elastic slip tolerance         0.37214E-09
 Update contact stiffness at each iteration
 Default Max. friction stress TAUMAX          0.10000E+21
 Average contact surface length               0.74428E-07
 Average contact pair depth                   0.25938E-07
 Default pinball region factor PINB           0.50000    
 The resulting pinball region                 0.12969E-07
 Initial penetration/gap is excluded.
 Bonded contact (always) is defined.

 *** NOTE ***                            CP =       9.703   TIME= 18:51:47
 Max.  Initial penetration 0 was detected between contact element 9739   
 and target element 9640.                                                
 ****************************************
  

 *** NOTE ***                            CP =       9.703   TIME= 18:51:47
 Symmetric Deformable- deformable contact pair identified by real        
 constant set 27 and contact element type 27 has been set up.  The       
 companion pair has real constant set ID 28.  Both pairs should have     
 the same behavior.                                                      
 ANSYS will keep the current pair and deactivate its companion pair,     
 resulting in asymmetric contact.                                        
 Small sliding logic is assumed
 Contact algorithm: Augmented Lagrange method
 Contact detection at: Gauss integration point
 Contact stiffness factor FKN                  10.000    
 The resulting initial contact stiffness      0.26838E+21
 Default penetration tolerance factor FTOLN   0.10000    
 The resulting penetration tolerance          0.10806E-07
 Default opening contact stiffness OPSF will be used.
 Default tangent stiffness factor FKT          1.0000    
 Default elastic slip factor SLTOL            0.50000E-02
 The resulting elastic slip tolerance         0.13435E-08
 Update contact stiffness at each iteration
 Default Max. friction stress TAUMAX          0.10000E+21
 Average contact surface length               0.26871E-06
 Average contact pair depth                   0.10806E-06
 Default pinball region factor PINB           0.50000    
 The resulting pinball region                 0.54028E-07
 Initial penetration/gap is excluded.
 Bonded contact (always) is defined.

 *** NOTE ***                            CP =       9.703   TIME= 18:51:47
 Max.  Initial penetration 3.97046694E-23 was detected between contact   
 element 9871 and target element 9926.                                   
 ****************************************
  

 *** NOTE ***                            CP =       9.703   TIME= 18:51:47
 Symmetric Deformable- deformable contact pair identified by real        
 constant set 28 and contact element type 27 has been set up.  The       
 companion pair has real constant set ID 27.  Both pairs should have     
 the same behavior.                                                      
 ANSYS will deactivate the current pair and keep its companion pair,     
 resulting in asymmetric contact.                                        
 Small sliding logic is assumed
 Contact algorithm: Augmented Lagrange method
 Contact detection at: Gauss integration point
 Default contact stiffness factor FKN          1.0000    
 The resulting initial contact stiffness      0.26838E+20
 Default penetration tolerance factor FTOLN   0.10000    
 The resulting penetration tolerance          0.18000E-07
 Default opening contact stiffness OPSF will be used.
 Default tangent stiffness factor FKT          1.0000    
 Default elastic slip factor SLTOL            0.50000E-02
 The resulting elastic slip tolerance         0.30000E-08
 Update contact stiffness at each iteration
 Default Max. friction stress TAUMAX          0.10000E+21
 Average contact surface length               0.60000E-06
 Average contact pair depth                   0.18000E-06
 Default pinball region factor PINB           0.50000    
 The resulting pinball region                 0.90000E-07
 Initial penetration/gap is excluded.
 Bonded contact (always) is defined.

 *** NOTE ***                            CP =       9.703   TIME= 18:51:47
 Max.  Initial penetration 1.32348898E-23 was detected between contact   
 element 9907 and target element 9866.                                   
 ****************************************
  

 *** WARNING ***                         CP =       9.703   TIME= 18:51:47
 Maximum contact stiffness 2.809944716E+20 is too big which can cause an 
 accuracy problem, you may scale the force units in the model.           

 *** WARNING ***                         CP =       9.703   TIME= 18:51:47
 Minimum contact depth 2.443885472E-08 is too small which can cause an   
 accuracy problem, you may scale the length units in the model.          
  
  

  
  
     D I S T R I B U T E D   D O M A I N   D E C O M P O S E R
  
  ...Number of elements: 7670
  ...Number of nodes:    12744
  ...Decompose to 2 CPU domains
  ...Element load balance ratio =     1.210


                      L O A D   S T E P   O P T I O N S

   LOAD STEP NUMBER. . . . . . . . . . . . . . . .     1
   TIME AT END OF THE LOAD STEP. . . . . . . . . . 0.15000E-06
   AUTOMATIC TIME STEPPING . . . . . . . . . . . .    ON
      INITIAL NUMBER OF SUBSTEPS . . . . . . . . .    20
      MAXIMUM NUMBER OF SUBSTEPS . . . . . . . . .   100
      MINIMUM NUMBER OF SUBSTEPS . . . . . . . . .    10
   MAXIMUM NUMBER OF EQUILIBRIUM ITERATIONS. . . .    25
   STEP CHANGE BOUNDARY CONDITIONS . . . . . . . .   YES
   TRANSIENT (INERTIA) EFFECTS
      STRUCTURAL DOFS. . . . . . . . . . . . . . .    ON
      ELECTRIC DOFS. . . . . . . . . . . . . . . .    ON
   TRANSIENT INTEGRATION PARAMETERS
      GAMMA. . . . . . . . . . . . . . . . . . . .  0.0000    
      ALPHA. . . . . . . . . . . . . . . . . . . . 0.25000    
      DELTA. . . . . . . . . . . . . . . . . . . . 0.50000    
      USING HHT TIME INTEGRATION
      ALPHAF . . . . . . . . . . . . . . . . . . .  0.0000    
      ALPHAM . . . . . . . . . . . . . . . . . . .  0.0000    
      THETA. . . . . . . . . . . . . . . . . . . . 0.50000    
      OSCILLATION LIMIT CRITERION. . . . . . . . . 0.50000    
      TOLERANCE. . . . . . . . . . . . . . . . . . 0.20000    
   TERMINATE ANALYSIS IF NOT CONVERGED . . . . . .YES (EXIT)  
   CONVERGENCE CONTROLS. . . . . . . . . . . . . .USE DEFAULTS
   PRINT OUTPUT CONTROLS . . . . . . . . . . . . .NO PRINTOUT
   DATABASE OUTPUT CONTROLS
      ITEM     FREQUENCY   COMPONENT
       ALL       NONE               
      NSOL        ALL               
      RSOL        ALL               
      EANG        ALL               
      ETMP        ALL               
      VENG        ALL               
      STRS        ALL               
      EPEL        ALL               
      EPPL        ALL               
      CONT        ALL               
      V           ALL               
      A           ALL               


 *** NOTE ***                            CP =       9.844   TIME= 18:51:48
 Symmetric Deformable- deformable contact pair identified by real        
 constant set 13 and contact element type 13 has been set up.  The       
 companion pair has real constant set ID 14.  Both pairs should have     
 the same behavior.                                                      
 ANSYS will deactivate the current pair and keep its companion pair,     
 resulting in asymmetric contact.                                        
 Small sliding logic is assumed
 Contact algorithm: Augmented Lagrange method
 Contact detection at: Gauss integration point
 Contact stiffness factor FKN                  10.000    
 The resulting initial contact stiffness      0.26104E+21
 Default penetration tolerance factor FTOLN   0.10000    
 The resulting penetration tolerance          0.11109E-07
 Default opening contact stiffness OPSF will be used.
 Default tangent stiffness factor FKT          1.0000    
 Default elastic slip factor SLTOL            0.50000E-02
 The resulting elastic slip tolerance         0.82189E-09
 Update contact stiffness at each iteration
 Default Max. friction stress TAUMAX          0.10000E+21
 Average contact surface length               0.16438E-06
 Average contact pair depth                   0.11109E-06
 Default pinball region factor PINB           0.50000    
 The resulting pinball region                 0.55547E-07
 Initial penetration/gap is excluded.
 Bonded contact (always) is defined.

 *** NOTE ***                            CP =       9.844   TIME= 18:51:48
 Max.  Initial penetration 0 was detected between contact element 8458   
 and target element 8560.                                                
 ****************************************
  

 *** NOTE ***                            CP =       9.844   TIME= 18:51:48
 Symmetric Deformable- deformable contact pair identified by real        
 constant set 14 and contact element type 13 has been set up.  The       
 companion pair has real constant set ID 13.  Both pairs should have     
 the same behavior.                                                      
 ANSYS will keep the current pair and deactivate its companion pair,     
 resulting in asymmetric contact.                                        
 Small sliding logic is assumed
 Contact algorithm: Augmented Lagrange method
 Contact detection at: Gauss integration point
 Contact stiffness factor FKN                  10.000    
 The resulting initial contact stiffness      0.26104E+21
 Default penetration tolerance factor FTOLN   0.10000    
 The resulting penetration tolerance          0.24439E-08
 Default opening contact stiffness OPSF will be used.
 Default tangent stiffness factor FKT          1.0000    
 Default elastic slip factor SLTOL            0.50000E-02
 The resulting elastic slip tolerance         0.31213E-09
 Update contact stiffness at each iteration
 Default Max. friction stress TAUMAX          0.10000E+21
 Average contact surface length               0.62426E-07
 Average contact pair depth                   0.24439E-07
 Default pinball region factor PINB           0.50000    
 The resulting pinball region                 0.12219E-07
 Initial penetration/gap is excluded.
 Bonded contact (always) is defined.

 *** NOTE ***                            CP =       9.844   TIME= 18:51:48
 Max.  Initial penetration 0 was detected between contact element 8517   
 and target element 8406.                                                
 ****************************************
  

 *** NOTE ***                            CP =       9.844   TIME= 18:51:48
 Symmetric Deformable- deformable contact pair identified by real        
 constant set 15 and contact element type 15 has been set up.  The       
 companion pair has real constant set ID 16.  Both pairs should have     
 the same behavior.                                                      
 ANSYS will deactivate the current pair and keep its companion pair,     
 resulting in asymmetric contact.                                        
 Small sliding logic is assumed
 Contact algorithm: Augmented Lagrange method
 Contact detection at: Gauss integration point
 Contact stiffness factor FKN                  10.000    
 The resulting initial contact stiffness      0.23942E+21
 Default penetration tolerance factor FTOLN   0.10000    
 The resulting penetration tolerance          0.12112E-07
 Default opening contact stiffness OPSF will be used.
 Default tangent stiffness factor FKT          1.0000    
 Default elastic slip factor SLTOL            0.50000E-02
 The resulting elastic slip tolerance         0.82639E-09
 Update contact stiffness at each iteration
 Default Max. friction stress TAUMAX          0.10000E+21
 Average contact surface length               0.16528E-06
 Average contact pair depth                   0.12112E-06
 Default pinball region factor PINB           0.50000    
 The resulting pinball region                 0.60562E-07
 Initial penetration/gap is excluded.
 Bonded contact (always) is defined.

 *** NOTE ***                            CP =       9.844   TIME= 18:51:48
 Max.  Initial penetration 0 was detected between contact element 8655   
 and target element 8785.                                                
 ****************************************
  

 *** NOTE ***                            CP =       9.844   TIME= 18:51:48
 Symmetric Deformable- deformable contact pair identified by real        
 constant set 16 and contact element type 15 has been set up.  The       
 companion pair has real constant set ID 15.  Both pairs should have     
 the same behavior.                                                      
 ANSYS will keep the current pair and deactivate its companion pair,     
 resulting in asymmetric contact.                                        
 Small sliding logic is assumed
 Contact algorithm: Augmented Lagrange method
 Contact detection at: Gauss integration point
 Contact stiffness factor FKN                  10.000    
 The resulting initial contact stiffness      0.23942E+21
 Default penetration tolerance factor FTOLN   0.10000    
 The resulting penetration tolerance          0.26261E-08
 Default opening contact stiffness OPSF will be used.
 Default tangent stiffness factor FKT          1.0000    
 Default elastic slip factor SLTOL            0.50000E-02
 The resulting elastic slip tolerance         0.31213E-09
 Update contact stiffness at each iteration
 Default Max. friction stress TAUMAX          0.10000E+21
 Average contact surface length               0.62426E-07
 Average contact pair depth                   0.26261E-07
 Default pinball region factor PINB           0.50000    
 The resulting pinball region                 0.13130E-07
 Initial penetration/gap is excluded.
 Bonded contact (always) is defined.

 *** NOTE ***                            CP =       9.844   TIME= 18:51:48
 Max.  Initial penetration 0 was detected between contact element 8713   
 and target element 8599.                                                
 ****************************************
  

 *** NOTE ***                            CP =       9.844   TIME= 18:51:48
 Symmetric Deformable- deformable contact pair identified by real        
 constant set 19 and contact element type 19 has been set up.  The       
 companion pair has real constant set ID 20.  Both pairs should have     
 the same behavior.                                                      
 ANSYS will deactivate the current pair and keep its companion pair,     
 resulting in asymmetric contact.                                        
 Small sliding logic is assumed
 Contact algorithm: Augmented Lagrange method
 Contact detection at: Gauss integration point
 Contact stiffness factor FKN                  10.000    
 The resulting initial contact stiffness      0.28099E+21
 Default penetration tolerance factor FTOLN   0.10000    
 The resulting penetration tolerance          0.10320E-07
 Default opening contact stiffness OPSF will be used.
 Default tangent stiffness factor FKT          1.0000    
 Default elastic slip factor SLTOL            0.50000E-02
 The resulting elastic slip tolerance         0.75699E-09
 Update contact stiffness at each iteration
 Default Max. friction stress TAUMAX          0.10000E+21
 Average contact surface length               0.15140E-06
 Average contact pair depth                   0.10320E-06
 Default pinball region factor PINB           0.50000    
 The resulting pinball region                 0.51602E-07
 Initial penetration/gap is excluded.
 Bonded contact (always) is defined.

 *** NOTE ***                            CP =       9.844   TIME= 18:51:48
 Max.  Initial penetration 0 was detected between contact element 9042   
 and target element 9170.                                                
 ****************************************
  

 *** NOTE ***                            CP =       9.844   TIME= 18:51:48
 Symmetric Deformable- deformable contact pair identified by real        
 constant set 20 and contact element type 19 has been set up.  The       
 companion pair has real constant set ID 19.  Both pairs should have     
 the same behavior.                                                      
 ANSYS will keep the current pair and deactivate its companion pair,     
 resulting in asymmetric contact.                                        
 Small sliding logic is assumed
 Contact algorithm: Augmented Lagrange method
 Contact detection at: Gauss integration point
 Contact stiffness factor FKN                  10.000    
 The resulting initial contact stiffness      0.28099E+21
 Default penetration tolerance factor FTOLN   0.10000    
 The resulting penetration tolerance          0.26943E-08
 Default opening contact stiffness OPSF will be used.
 Default tangent stiffness factor FKT          1.0000    
 Default elastic slip factor SLTOL            0.50000E-02
 The resulting elastic slip tolerance         0.37864E-09
 Update contact stiffness at each iteration
 Default Max. friction stress TAUMAX          0.10000E+21
 Average contact surface length               0.75727E-07
 Average contact pair depth                   0.26943E-07
 Default pinball region factor PINB           0.50000    
 The resulting pinball region                 0.13471E-07
 Initial penetration/gap is excluded.
 Bonded contact (always) is defined.

 *** NOTE ***                            CP =       9.844   TIME= 18:51:48
 Max.  Initial penetration 0 was detected between contact element 9101   
 and target element 9003.                                                
 ****************************************
  

 *** NOTE ***                            CP =       9.844   TIME= 18:51:48
 Symmetric Deformable- deformable contact pair identified by real        
 constant set 23 and contact element type 23 has been set up.  The       
 companion pair has real constant set ID 24.  Both pairs should have     
 the same behavior.                                                      
 ANSYS will deactivate the current pair and keep its companion pair,     
 resulting in asymmetric contact.                                        
 Small sliding logic is assumed
 Contact algorithm: Augmented Lagrange method
 Contact detection at: Gauss integration point
 Contact stiffness factor FKN                  10.000    
 The resulting initial contact stiffness      0.26268E+21
 Default penetration tolerance factor FTOLN   0.10000    
 The resulting penetration tolerance          0.11040E-07
 Default opening contact stiffness OPSF will be used.
 Default tangent stiffness factor FKT          1.0000    
 Default elastic slip factor SLTOL            0.50000E-02
 The resulting elastic slip tolerance         0.82214E-09
 Update contact stiffness at each iteration
 Default Max. friction stress TAUMAX          0.10000E+21
 Average contact surface length               0.16443E-06
 Average contact pair depth                   0.11040E-06
 Default pinball region factor PINB           0.50000    
 The resulting pinball region                 0.55199E-07
 Initial penetration/gap is excluded.
 Bonded contact (always) is defined.

 *** NOTE ***                            CP =       9.844   TIME= 18:51:48
 Max.  Initial penetration 0 was detected between contact element 9466   
 and target element 9600.                                                
 ****************************************
  

 *** NOTE ***                            CP =       9.844   TIME= 18:51:48
 Symmetric Deformable- deformable contact pair identified by real        
 constant set 24 and contact element type 23 has been set up.  The       
 companion pair has real constant set ID 23.  Both pairs should have     
 the same behavior.                                                      
 ANSYS will keep the current pair and deactivate its companion pair,     
 resulting in asymmetric contact.                                        
 Small sliding logic is assumed
 Contact algorithm: Augmented Lagrange method
 Contact detection at: Gauss integration point
 Contact stiffness factor FKN                  10.000    
 The resulting initial contact stiffness      0.26268E+21
 Default penetration tolerance factor FTOLN   0.10000    
 The resulting penetration tolerance          0.26111E-08
 Default opening contact stiffness OPSF will be used.
 Default tangent stiffness factor FKT          1.0000    
 Default elastic slip factor SLTOL            0.50000E-02
 The resulting elastic slip tolerance         0.36457E-09
 Update contact stiffness at each iteration
 Default Max. friction stress TAUMAX          0.10000E+21
 Average contact surface length               0.72915E-07
 Average contact pair depth                   0.26111E-07
 Default pinball region factor PINB           0.50000    
 The resulting pinball region                 0.13056E-07
 Initial penetration/gap is excluded.
 Bonded contact (always) is defined.

 *** NOTE ***                            CP =       9.859   TIME= 18:51:48
 Max.  Initial penetration 0 was detected between contact element 9513   
 and target element 9460.                                                
 ****************************************
  

  
 *************************************************
  SUMMARY FOR CONTACT PAIR IDENTIFIED BY REAL CONSTANT SET          13

 *** NOTE ***                            CP =      10.609   TIME= 18:51:49
 Contact pair is inactive.                                               
  
 *************************************************
  SUMMARY FOR CONTACT PAIR IDENTIFIED BY REAL CONSTANT SET          14
 Max.  Penetration of 0 has been detected between contact element 8517   
 and target element 8406.                                                
 For total 39 contact elements, there are 39 elements are in contact.    
 There are 39 elements are in sticking.                                  
 Contacting area 1.18E-13.                                               
 Max.  Pinball distance 1.221942736E-08.                                 
 One of the contact searching regions contains at least 12 target        
 elements.                                                               
 Max.  Pressure/force 1.447354499E-03.                                   
 Max.  Normal stiffness 2.610423226E+19.                                 
 Min.  Normal stiffness 2.610423226E+19.                                 
 Max.  Tangential stiffness 1.957817419E+18.                             
 Min.  Tangential stiffness 1.957817419E+18.                             
 *************************************************
  
 *************************************************
  SUMMARY FOR CONTACT PAIR IDENTIFIED BY REAL CONSTANT SET          15

 *** NOTE ***                            CP =      10.609   TIME= 18:51:49
 Contact pair is inactive.                                               
  
 *************************************************
  SUMMARY FOR CONTACT PAIR IDENTIFIED BY REAL CONSTANT SET          16
 Max.  Penetration of 0 has been detected between contact element 8713   
 and target element 8599.                                                
 For total 39 contact elements, there are 39 elements are in contact.    
 There are 39 elements are in sticking.                                  
 Contacting area 1.18E-13.                                               
 Max.  Pinball distance 1.3130476E-08.                                   
 One of the contact searching regions contains at least 12 target        
 elements.                                                               
 Max.  Pressure/force 1.327487618E-03.                                   
 Max.  Normal stiffness 2.39423342E+19.                                  
 Min.  Normal stiffness 2.39423342E+19.                                  
 Max.  Tangential stiffness 1.795675065E+18.                             
 Min.  Tangential stiffness 1.795675065E+18.                             
 *************************************************
  
 *************************************************
  SUMMARY FOR CONTACT PAIR IDENTIFIED BY REAL CONSTANT SET          19

 *** NOTE ***                            CP =      10.609   TIME= 18:51:49
 Contact pair is inactive.                                               
  
 *************************************************
  SUMMARY FOR CONTACT PAIR IDENTIFIED BY REAL CONSTANT SET          20
 Max.  Penetration of 0 has been detected between contact element 9101   
 and target element 9003.                                                
 For total 52 contact elements, there are 52 elements are in contact.    
 There are 52 elements are in sticking.                                  
 Contacting area 1.21748E-13.                                            
 Max.  Pinball distance 1.347137224E-08.                                 
 One of the contact searching regions contains at least 10 target        
 elements.                                                               
 Max.  Pressure/force 1.889949392E-03.                                   
 Max.  Normal stiffness 2.809944716E+19.                                 
 Min.  Normal stiffness 2.809944716E+19.                                 
 Max.  Tangential stiffness 2.107458537E+18.                             
 Min.  Tangential stiffness 2.107458537E+18.                             
 *************************************************
  
 *************************************************
  SUMMARY FOR CONTACT PAIR IDENTIFIED BY REAL CONSTANT SET          23

 *** NOTE ***                            CP =      10.609   TIME= 18:51:49
 Contact pair is inactive.                                               
  
 *************************************************
  SUMMARY FOR CONTACT PAIR IDENTIFIED BY REAL CONSTANT SET          24
 Max.  Penetration of 0 has been detected between contact element 9513   
 and target element 9460.                                                
 For total 54 contact elements, there are 54 elements are in contact.    
 There are 54 elements are in sticking.                                  
 Contacting area 1.21748E-13.                                            
 Max.  Pinball distance 1.305572935E-08.                                 
 One of the contact searching regions contains at least 11 target        
 elements.                                                               
 Max.  Pressure/force 1.701180123E-03.                                   
 Max.  Normal stiffness 2.626848939E+19.                                 
 Min.  Normal stiffness 2.626848939E+19.                                 
 Max.  Tangential stiffness 1.970136704E+18.                             
 Min.  Tangential stiffness 1.970136704E+18.                             
 *************************************************


                         ***********  PRECISE MASS SUMMARY  ***********

   TOTAL RIGID BODY MASS MATRIX ABOUT ORIGIN
               Translational mass               |   Coupled translational/rotational mass
        0.81015E-13    0.0000        0.0000     |     0.0000      -0.93809E-20   0.26331E-35
         0.0000       0.81015E-13    0.0000     |    0.93809E-20    0.0000       0.10119E-33
         0.0000        0.0000       0.81015E-13 |    0.11285E-35  -0.99682E-34    0.0000    
     ------------------------------------------ | ------------------------------------------
                                                |         Rotational mass (inertia)
                                                |    0.22646E-24   0.35807E-32  -0.18351E-40
                                                |    0.35807E-32   0.22646E-24  -0.16152E-39
                                                |   -0.18363E-40  -0.16161E-39   0.44939E-24

   TOTAL MASS = 0.81015E-13
     The mass principal axes coincide with the global Cartesian axes

   CENTER OF MASS (X,Y,Z)=   0.12490E-20  -0.32502E-22  -0.11579E-06

   TOTAL INERTIA ABOUT CENTER OF MASS
        0.22537E-24   0.35807E-32  -0.30068E-40
        0.35807E-32   0.22537E-24  -0.16121E-39
       -0.30068E-40  -0.16121E-39   0.44939E-24
     The inertia principal axes coincide with the global Cartesian axes


  *** MASS SUMMARY BY ELEMENT TYPE ***

  TYPE      MASS
     1  0.109177E-13
     2  0.764280E-16
     3  0.764280E-16
     4  0.764280E-16
     5  0.764280E-16
     6  0.778747E-16
     7  0.778747E-16
     8  0.778747E-16
     9  0.778747E-16
    10  0.694800E-13

 Range of element maximum matrix coefficients in global coordinates
 Maximum = 1125666.04 at element 7861.                                   
 Minimum = 4528.38208 at element 9550.                                   

   *** ELEMENT MATRIX FORMULATION TIMES
     TYPE    NUMBER   ENAME      TOTAL CP  AVE CP

        1      3308  SOLID187      0.531   0.000161
        2        54  SOLID186      0.016   0.000289
        3        54  SOLID186      0.016   0.000289
        4        48  SOLID186      0.000   0.000000
        5        48  SOLID186      0.000   0.000000
        6       223  SOLID187      0.031   0.000140
        7       230  SOLID187      0.031   0.000136
        8       242  SOLID187      0.062   0.000258
        9       243  SOLID187      0.062   0.000257
       10       100  SOLID186      0.031   0.000313
       11        99  CONTA174      0.047   0.000473
       12        99  TARGE170      0.000   0.000000
       13        98  CONTA174      0.000   0.000000
       14        98  TARGE170      0.016   0.000159
       15        98  CONTA174      0.031   0.000319
       16        98  TARGE170      0.016   0.000159
       17        96  CONTA174      0.031   0.000326
       18        96  TARGE170      0.000   0.000000
       19       111  CONTA174      0.000   0.000000
       20       111  TARGE170      0.000   0.000000
       21       107  CONTA174      0.016   0.000146
       22       107  TARGE170      0.000   0.000000
       23       101  CONTA174      0.000   0.000000
       24       101  TARGE170      0.000   0.000000
       25       113  CONTA174      0.016   0.000138
       26       113  TARGE170      0.000   0.000000
       27        40  CONTA174      0.000   0.000000
       28        40  TARGE170      0.000   0.000000
       29      1394  TRANS126      0.031   0.000022
 Time at end of element matrix formulation CP = 10.609375.               

 ALL CURRENT ANSYS DATA WRITTEN TO FILE NAME= file.rdb
  FOR POSSIBLE RESUME FROM THIS POINT
     FORCE CONVERGENCE VALUE  =  0.5094E-15  CRITERION=  0.1000E-02
     CURRENT CONVERGENCE VALUE=   0.000      CRITERION=   0.000    

 DISTRIBUTED SPARSE MATRIX DIRECT SOLVER.
  Number of equations =       33027,    Maximum wavefront =    640

  Local memory allocated for solver              =    122.448 MB
  Local memory required for in-core solution     =    101.437 MB
  Local memory required for out-of-core solution =     47.571 MB

  Total memory allocated for solver              =    237.966 MB
  Total memory required for in-core solution     =    196.859 MB
  Total memory required for out-of-core solution =     92.143 MB

 *** NOTE ***                            CP =      11.234   TIME= 18:51:50
 The Distributed Sparse Matrix Solver is currently running in the        
 in-core memory mode.  This memory mode uses the most amount of memory   
 in order to avoid using the hard drive as much as possible, which most  
 often results in the fastest solution time.  This mode is recommended   
[...]
 *** LOAD STEP     3   SUBSTEP    64  COMPLETED.    CUM ITER =     89
 *** TIME =  0.274297E-06     TIME INC =  0.149000E-08
 *** RESPONSE FREQ = 0.2809E+09   PERIOD=  0.3560E-08  PTS/CYC =  2.4    
 *** AUTO STEP TIME:  NEXT TIME INC = 0.14900E-08  UNCHANGED

     FORCE CONVERGENCE VALUE  =  0.2364E-03  CRITERION=  0.1000E-02
     CURRENT CONVERGENCE VALUE=   0.000      CRITERION=  0.8267E-08
    EQUIL ITER   1 COMPLETED.  NEW TRIANG MATRIX.  MAX DOF INC=  0.4580E-07
     FORCE CONVERGENCE VALUE  =  0.1400E-03  CRITERION=  0.1000E-02 <<< CONVERGED
     CURRENT CONVERGENCE VALUE=   0.000      CRITERION=  0.1752E-07 <<< CONVERGED
    >>> SOLUTION CONVERGED AFTER EQUILIBRIUM ITERATION   1
 *** LOAD STEP     3   SUBSTEP    65  COMPLETED.    CUM ITER =     90
 *** TIME =  0.275787E-06     TIME INC =  0.149000E-08
 *** RESPONSE FREQ = 0.2489E+09   PERIOD=  0.4017E-08  PTS/CYC =  2.7    
 *** AUTO STEP TIME:  NEXT TIME INC = 0.14900E-08  UNCHANGED

     FORCE CONVERGENCE VALUE  =  0.1614E-03  CRITERION=  0.1000E-02
     CURRENT CONVERGENCE VALUE=   0.000      CRITERION=  0.1752E-07
    EQUIL ITER   1 COMPLETED.  NEW TRIANG MATRIX.  MAX DOF INC= -0.6318E-07
     FORCE CONVERGENCE VALUE  =  0.1384E-03  CRITERION=  0.1000E-02 <<< CONVERGED
     CURRENT CONVERGENCE VALUE=   0.000      CRITERION=  0.6920E-08 <<< CONVERGED
    >>> SOLUTION CONVERGED AFTER EQUILIBRIUM ITERATION   1
 *** LOAD STEP     3   SUBSTEP    66  COMPLETED.    CUM ITER =     91
 *** TIME =  0.277277E-06     TIME INC =  0.149000E-08
 *** RESPONSE FREQ = 0.2526E+09   PERIOD=  0.3959E-08  PTS/CYC =  2.7    
 *** AUTO STEP TIME:  NEXT TIME INC = 0.14900E-08  UNCHANGED

     FORCE CONVERGENCE VALUE  =  0.1334E-03  CRITERION=  0.1000E-02
     CURRENT CONVERGENCE VALUE=   0.000      CRITERION=  0.6920E-08
    EQUIL ITER   1 COMPLETED.  NEW TRIANG MATRIX.  MAX DOF INC= -0.6783E-07
     FORCE CONVERGENCE VALUE  =  0.1524E-03  CRITERION=  0.1000E-02 <<< CONVERGED
     CURRENT CONVERGENCE VALUE=   0.000      CRITERION=  0.6046E-08 <<< CONVERGED
    >>> SOLUTION CONVERGED AFTER EQUILIBRIUM ITERATION   1
 *** LOAD STEP     3   SUBSTEP    67  COMPLETED.    CUM ITER =     92
 *** TIME =  0.278767E-06     TIME INC =  0.149000E-08
 *** RESPONSE FREQ = 0.3319E+09   PERIOD=  0.3013E-08  PTS/CYC =  2.0    
 *** AUTO STEP TIME:  NEXT TIME INC = 0.14900E-08  UNCHANGED

     FORCE CONVERGENCE VALUE  =  0.1842E-03  CRITERION=  0.1000E-02
     CURRENT CONVERGENCE VALUE=   0.000      CRITERION=  0.6046E-08
    EQUIL ITER   1 COMPLETED.  NEW TRIANG MATRIX.  MAX DOF INC= -0.3320E-07
     FORCE CONVERGENCE VALUE  =  0.6601E-04  CRITERION=  0.1000E-02 <<< CONVERGED
     CURRENT CONVERGENCE VALUE=   0.000      CRITERION=  0.9719E-08 <<< CONVERGED
    >>> SOLUTION CONVERGED AFTER EQUILIBRIUM ITERATION   1
 *** LOAD STEP     3   SUBSTEP    68  COMPLETED.    CUM ITER =     93
 *** TIME =  0.280257E-06     TIME INC =  0.149000E-08
 *** RESPONSE FREQ = 0.2277E+09   PERIOD=  0.4392E-08  PTS/CYC =  2.9    
 *** AUTO STEP TIME:  NEXT TIME INC = 0.14900E-08  UNCHANGED

     FORCE CONVERGENCE VALUE  =  0.8110E-04  CRITERION=  0.1000E-02
     CURRENT CONVERGENCE VALUE=   0.000      CRITERION=  0.9719E-08
    EQUIL ITER   1 COMPLETED.  NEW TRIANG MATRIX.  MAX DOF INC=  0.8576E-07
     FORCE CONVERGENCE VALUE  =  0.2472E-03  CRITERION=  0.1000E-02 <<< CONVERGED
     CURRENT CONVERGENCE VALUE=   0.000      CRITERION=  0.1002E-07 <<< CONVERGED
    >>> SOLUTION CONVERGED AFTER EQUILIBRIUM ITERATION   1
 *** LOAD STEP     3   SUBSTEP    69  COMPLETED.    CUM ITER =     94
 *** TIME =  0.281747E-06     TIME INC =  0.149000E-08
 *** RESPONSE FREQ = 0.3187E+09   PERIOD=  0.3137E-08  PTS/CYC =  2.1    
 *** AUTO STEP TIME:  NEXT TIME INC = 0.14900E-08  UNCHANGED

     FORCE CONVERGENCE VALUE  =  0.2757E-03  CRITERION=  0.1000E-02
     CURRENT CONVERGENCE VALUE=   0.000      CRITERION=  0.1002E-07
    EQUIL ITER   1 COMPLETED.  NEW TRIANG MATRIX.  MAX DOF INC= -0.5515E-07
     FORCE CONVERGENCE VALUE  =  0.9720E-04  CRITERION=  0.1000E-02 <<< CONVERGED
     CURRENT CONVERGENCE VALUE=   0.000      CRITERION=  0.9983E-08 <<< CONVERGED
    >>> SOLUTION CONVERGED AFTER EQUILIBRIUM ITERATION   1
 *** LOAD STEP     3   SUBSTEP    70  COMPLETED.    CUM ITER =     95
 *** TIME =  0.283237E-06     TIME INC =  0.149000E-08
 *** RESPONSE FREQ = 0.2821E+09   PERIOD=  0.3545E-08  PTS/CYC =  2.4    
 *** AUTO STEP TIME:  NEXT TIME INC = 0.14900E-08  UNCHANGED

     FORCE CONVERGENCE VALUE  =  0.1093E-03  CRITERION=  0.1000E-02
     CURRENT CONVERGENCE VALUE=   0.000      CRITERION=  0.9983E-08
    EQUIL ITER   1 COMPLETED.  NEW TRIANG MATRIX.  MAX DOF INC= -0.1009E-06
     FORCE CONVERGENCE VALUE  =  0.3351E-03  CRITERION=  0.1000E-02 <<< CONVERGED
     CURRENT CONVERGENCE VALUE=   0.000      CRITERION=  0.9196E-08 <<< CONVERGED
    >>> SOLUTION CONVERGED AFTER EQUILIBRIUM ITERATION   1
 *** LOAD STEP     3   SUBSTEP    71  COMPLETED.    CUM ITER =     96
 *** TIME =  0.284727E-06     TIME INC =  0.149000E-08
 *** RESPONSE FREQ = 0.3574E+09   PERIOD=  0.2798E-08  PTS/CYC =  1.9    
 *** AUTO STEP TIME:  NEXT TIME INC = 0.14900E-08  UNCHANGED

     FORCE CONVERGENCE VALUE  =  0.3598E-03  CRITERION=  0.1000E-02
     CURRENT CONVERGENCE VALUE=   0.000      CRITERION=  0.9196E-08
    EQUIL ITER   1 COMPLETED.  NEW TRIANG MATRIX.  MAX DOF INC=  0.8176E-07
     FORCE CONVERGENCE VALUE  =  0.1927E-03  CRITERION=  0.1000E-02 <<< CONVERGED
     CURRENT CONVERGENCE VALUE=   0.000      CRITERION=  0.6839E-08 <<< CONVERGED
    >>> SOLUTION CONVERGED AFTER EQUILIBRIUM ITERATION   1
 *** LOAD STEP     3   SUBSTEP    72  COMPLETED.    CUM ITER =     97
 *** TIME =  0.286217E-06     TIME INC =  0.149000E-08
 *** RESPONSE FREQ = 0.2652E+09   PERIOD=  0.3771E-08  PTS/CYC =  2.5    
 *** AUTO STEP TIME:  NEXT TIME INC = 0.14900E-08  UNCHANGED

     FORCE CONVERGENCE VALUE  =  0.2032E-03  CRITERION=  0.1000E-02
     CURRENT CONVERGENCE VALUE=   0.000      CRITERION=  0.6839E-08
    EQUIL ITER   1 COMPLETED.  NEW TRIANG MATRIX.  MAX DOF INC=  0.9734E-07
     FORCE CONVERGENCE VALUE  =  0.3689E-03  CRITERION=  0.1000E-02 <<< CONVERGED
     CURRENT CONVERGENCE VALUE=   0.000      CRITERION=  0.1927E-07 <<< CONVERGED
    >>> SOLUTION CONVERGED AFTER EQUILIBRIUM ITERATION   1
 *** LOAD STEP     3   SUBSTEP    73  COMPLETED.    CUM ITER =     98
 *** TIME =  0.287707E-06     TIME INC =  0.149000E-08
 *** RESPONSE FREQ = 0.3363E+09   PERIOD=  0.2974E-08  PTS/CYC =  2.0    
 *** AUTO STEP TIME:  NEXT TIME INC = 0.14900E-08  UNCHANGED

     FORCE CONVERGENCE VALUE  =  0.3927E-03  CRITERION=  0.1000E-02
     CURRENT CONVERGENCE VALUE=   0.000      CRITERION=  0.1927E-07
    EQUIL ITER   1 COMPLETED.  NEW TRIANG MATRIX.  MAX DOF INC= -0.6271E-07
     FORCE CONVERGENCE VALUE  =  0.1242E-03  CRITERION=  0.1000E-02 <<< CONVERGED
     CURRENT CONVERGENCE VALUE=   0.000      CRITERION=  0.8418E-08 <<< CONVERGED
    >>> SOLUTION CONVERGED AFTER EQUILIBRIUM ITERATION   1
 *** LOAD STEP     3   SUBSTEP    74  COMPLETED.    CUM ITER =     99
 *** TIME =  0.289197E-06     TIME INC =  0.149000E-08
 *** RESPONSE FREQ = 0.3093E+09   PERIOD=  0.3234E-08  PTS/CYC =  2.2    
 *** AUTO STEP TIME:  NEXT TIME INC = 0.14900E-08  UNCHANGED

     FORCE CONVERGENCE VALUE  =  0.1382E-03  CRITERION=  0.1000E-02
     CURRENT CONVERGENCE VALUE=   0.000      CRITERION=  0.8418E-08
    EQUIL ITER   1 COMPLETED.  NEW TRIANG MATRIX.  MAX DOF INC= -0.1016E-06
     FORCE CONVERGENCE VALUE  =  0.4696E-03  CRITERION=  0.1000E-02 <<< CONVERGED
     CURRENT CONVERGENCE VALUE=   0.000      CRITERION=  0.3079E-08 <<< CONVERGED
    >>> SOLUTION CONVERGED AFTER EQUILIBRIUM ITERATION   1
 *** LOAD STEP     3   SUBSTEP    75  COMPLETED.    CUM ITER =    100
 *** TIME =  0.290687E-06     TIME INC =  0.149000E-08
 *** RESPONSE FREQ = 0.4119E+09   PERIOD=  0.2428E-08  PTS/CYC =  1.6    
 *** AUTO STEP TIME:  NEXT TIME INC = 0.14900E-08  UNCHANGED

     FORCE CONVERGENCE VALUE  =  0.4945E-03  CRITERION=  0.1000E-02
     CURRENT CONVERGENCE VALUE=   0.000      CRITERION=  0.3079E-08
    EQUIL ITER   1 COMPLETED.  NEW TRIANG MATRIX.  MAX DOF INC= -0.5879E-07
     FORCE CONVERGENCE VALUE  =  0.1496E-03  CRITERION=  0.1000E-02 <<< CONVERGED
     CURRENT CONVERGENCE VALUE=   0.000      CRITERION=  0.1144E-07 <<< CONVERGED
    >>> SOLUTION CONVERGED AFTER EQUILIBRIUM ITERATION   1
 *** LOAD STEP     3   SUBSTEP    76  COMPLETED.    CUM ITER =    101
 *** TIME =  0.292177E-06     TIME INC =  0.149000E-08
 *** RESPONSE FREQ = 0.2317E+09   PERIOD=  0.4315E-08  PTS/CYC =  2.9    
 *** AUTO STEP TIME:  NEXT TIME INC = 0.14900E-08  UNCHANGED

     FORCE CONVERGENCE VALUE  =  0.1622E-03  CRITERION=  0.1000E-02
     CURRENT CONVERGENCE VALUE=   0.000      CRITERION=  0.1144E-07
    EQUIL ITER   1 COMPLETED.  NEW TRIANG MATRIX.  MAX DOF INC=  0.1329E-06
     FORCE CONVERGENCE VALUE  =  0.7398E-03  CRITERION=  0.1000E-02 <<< CONVERGED
     CURRENT CONVERGENCE VALUE=   0.000      CRITERION=  0.1266E-07 <<< CONVERGED
    >>> SOLUTION CONVERGED AFTER EQUILIBRIUM ITERATION   1
 *** LOAD STEP     3   SUBSTEP    77  COMPLETED.    CUM ITER =    102
 *** TIME =  0.293667E-06     TIME INC =  0.149000E-08
 *** RESPONSE FREQ = 0.3878E+09   PERIOD=  0.2579E-08  PTS/CYC =  1.7    
 *** AUTO STEP TIME:  NEXT TIME INC = 0.14900E-08  UNCHANGED

     FORCE CONVERGENCE VALUE  =  0.7550E-03  CRITERION=  0.1000E-02
     CURRENT CONVERGENCE VALUE=   0.000      CRITERION=  0.1266E-07
    EQUIL ITER   1 COMPLETED.  NEW TRIANG MATRIX.  MAX DOF INC=  0.6656E-07
     FORCE CONVERGENCE VALUE  =  0.4224E-03  CRITERION=  0.1000E-02 <<< CONVERGED
     CURRENT CONVERGENCE VALUE=   0.000      CRITERION=  0.5502E-08 <<< CONVERGED
    >>> SOLUTION CONVERGED AFTER EQUILIBRIUM ITERATION   1
 *** LOAD STEP     3   SUBSTEP    78  COMPLETED.    CUM ITER =    103
 *** TIME =  0.295157E-06     TIME INC =  0.149000E-08
 *** RESPONSE FREQ = 0.3201E+09   PERIOD=  0.3124E-08  PTS/CYC =  2.1    
 *** AUTO STEP TIME:  NEXT TIME INC = 0.14900E-08  UNCHANGED

     FORCE CONVERGENCE VALUE  =  0.4260E-03  CRITERION=  0.1000E-02
     CURRENT CONVERGENCE VALUE=   0.000      CRITERION=  0.5502E-08
    EQUIL ITER   1 COMPLETED.  NEW TRIANG MATRIX.  MAX DOF INC= -0.1213E-06
     FORCE CONVERGENCE VALUE  =  0.3867E-02  CRITERION=  0.1000E-02
     CURRENT CONVERGENCE VALUE=   0.000      CRITERION=  0.7676E-08 <<< CONVERGED
    EQUIL ITER   2 COMPLETED.  NEW TRIANG MATRIX.  MAX DOF INC= -0.9357E-08
     FORCE CONVERGENCE VALUE  =  0.2153E-03  CRITERION=  0.1000E-02 <<< CONVERGED
     CURRENT CONVERGENCE VALUE=   0.000      CRITERION=  0.7806E-08 <<< CONVERGED
    >>> SOLUTION CONVERGED AFTER EQUILIBRIUM ITERATION   2
 *** LOAD STEP     3   SUBSTEP    79  COMPLETED.    CUM ITER =    105
 *** TIME =  0.296647E-06     TIME INC =  0.149000E-08
 *** RESPONSE FREQ = 0.2734E+09   PERIOD=  0.3658E-08  PTS/CYC =  2.5    
 *** AUTO STEP TIME:  NEXT TIME INC = 0.14900E-08  UNCHANGED

     FORCE CONVERGENCE VALUE  =  0.2256E-03  CRITERION=  0.1000E-02
     CURRENT CONVERGENCE VALUE=   0.000      CRITERION=  0.7806E-08
    EQUIL ITER   1 COMPLETED.  NEW TRIANG MATRIX.  MAX DOF INC= -0.1016E-06
     FORCE CONVERGENCE VALUE  =  0.3586E-03  CRITERION=  0.1000E-02 <<< CONVERGED
     CURRENT CONVERGENCE VALUE=   0.000      CRITERION=  0.1114E-07 <<< CONVERGED
    >>> SOLUTION CONVERGED AFTER EQUILIBRIUM ITERATION   1
 *** LOAD STEP     3   SUBSTEP    80  COMPLETED.    CUM ITER =    106
 *** TIME =  0.298137E-06     TIME INC =  0.149000E-08
 *** RESPONSE FREQ = 0.3035E+09   PERIOD=  0.3294E-08  PTS/CYC =  2.2    
 *** AUTO TIME STEP:  NEXT TIME INC = 0.93125E-09  DECREASED (FACTOR = 0.6250)

     FORCE CONVERGENCE VALUE  =  0.3629E-03  CRITERION=  0.1000E-02
     CURRENT CONVERGENCE VALUE=   0.000      CRITERION=  0.1114E-07
    EQUIL ITER   1 COMPLETED.  NEW TRIANG MATRIX.  MAX DOF INC=  0.8428E-07
     FORCE CONVERGENCE VALUE  =  0.2272E-03  CRITERION=  0.1000E-02 <<< CONVERGED
     CURRENT CONVERGENCE VALUE=   0.000      CRITERION=  0.4124E-08 <<< CONVERGED
    >>> SOLUTION CONVERGED AFTER EQUILIBRIUM ITERATION   1
 *** LOAD STEP     3   SUBSTEP    81  COMPLETED.    CUM ITER =    107
 *** TIME =  0.299069E-06     TIME INC =  0.931250E-09
 *** RESPONSE FREQ = 0.3344E+09   PERIOD=  0.2991E-08  PTS/CYC =  3.2    
 *** AUTO STEP TIME:  NEXT TIME INC = 0.93125E-09  UNCHANGED

     FORCE CONVERGENCE VALUE  =  0.2441E-03  CRITERION=  0.1000E-02
     CURRENT CONVERGENCE VALUE=   0.000      CRITERION=  0.4124E-08
    EQUIL ITER   1 COMPLETED.  NEW TRIANG MATRIX.  MAX DOF INC=  0.7351E-07
     FORCE CONVERGENCE VALUE  =  0.2452E-03  CRITERION=  0.1000E-02 <<< CONVERGED
     CURRENT CONVERGENCE VALUE=   0.000      CRITERION=  0.6548E-08 <<< CONVERGED
    >>> SOLUTION CONVERGED AFTER EQUILIBRIUM ITERATION   1
 *** LOAD STEP     3   SUBSTEP    82  COMPLETED.    CUM ITER =    108
 *** TIME =  0.300000E-06     TIME INC =  0.931250E-09
 *** RESPONSE FREQ = 0.3511E+09   PERIOD=  0.2849E-08  PTS/CYC =  3.1    
 ****************************************************
 *************** FINISHED SOLVE FOR LS 3 *************

 *GET  _WALLASOL  FROM  ACTI  ITEM=TIME WALL  VALUE=  18.9402778    

 PRINTOUT RESUMED BY /GOP

 FINISH SOLUTION PROCESSING


 ***** ROUTINE COMPLETED *****  CP =       261.266



 *** ANSYS - ENGINEERING ANALYSIS SYSTEM  RELEASE 2020 R1          20.1     ***
 DISTRIBUTED ANSYS Mechanical Enterprise                       

 20120530  VERSION=WINDOWS x64   18:56:32  APR 05, 2020 CP=    261.266

                                                                               



          ***** ANSYS RESULTS INTERPRETATION (POST1) *****

 *** NOTE ***                            CP =     261.266   TIME= 18:56:32
 The model contains an element type ( TRANS126 ) that operates entirely  
 in the nodal coordinate system.  Viewing nodal displacements or forces  
 in other than the nodal coordinate system may be invalid.  See the      
 elements manual description for more information.                       

 *** NOTE ***                            CP =     261.266   TIME= 18:56:32
 Reading results into the database (SET command) will update the current 
 displacement and force boundary conditions in the database with the     
 values from the results file for that load set.  Note that any          
 subsequent solutions will use these values unless action is taken to    
 either SAVE the current values or not overwrite them (/EXIT,NOSAVE).    

 Set Encoding of XML File to:ISO-8859-1

 Set Output of XML File to:
     PARM,     ,     ,     ,     ,     ,     ,     ,     ,     ,     ,     ,
         ,     ,     ,     ,     ,     ,     ,

 DATABASE WRITTEN ON FILE  parm.xml                                                                                                                                                                                                                                                            

 EXIT THE ANSYS POST1 DATABASE PROCESSOR


 ***** ROUTINE COMPLETED *****  CP =       261.328



 PRINTOUT RESUMED BY /GOP

 *GET  _WALLDONE  FROM  ACTI  ITEM=TIME WALL  VALUE=  18.9422222    

 PARAMETER _PREPTIME =     9.000000000    

 PARAMETER _SOLVTIME =     279.0000000    

 PARAMETER _POSTTIME =     7.000000000    

 PARAMETER _TOTALTIM =     295.0000000    

 *GET  _DLBRATIO  FROM  ACTI  ITEM=SOLU DLBR  VALUE=  1.20980847    

 *GET  _COMBTIME  FROM  ACTI  ITEM=SOLU COMB  VALUE=  6.41214840    
 --- Number of total nodes = 12744
 --- Number of total elements = 7670
 --- Element load balance ratio = 1.20980847
 --- Time to combine distributed files = 6.4121484

 EXIT ANSYS WITHOUT SAVING DATABASE


 NUMBER OF WARNING MESSAGES ENCOUNTERED=          7
 NUMBER OF ERROR   MESSAGES ENCOUNTERED=          2

+--------- D I S T R I B U T E D   A N S Y S   S T A T I S T I C S ------------+

Release: 2020 R1            Build: 20.1       Update: UP20191203   Platform: WINDOWS x64 
Date Run: 04/05/2020   Time: 18:56     Process ID: 7668
Operating System: Windows 10  (Build: 18363)

Processor Model: Intel(R) Core(TM) i5-6360U CPU @ 2.00GHz

Compiler: Intel(R) FORTRAN Compiler Version 19.0.0  (Build: 20190206)
          Intel(R) C/C++ Compiler Version 19.0.0  (Build: 20190206)
          Intel(R) Math Kernel Library Version 2019.0.3 Product Build 20190125

Number of machines requested            :    1
Total number of cores available         :    2
Number of physical cores available      :    2
Number of processes requested           :    2
Number of threads per process requested :    1
Total number of cores requested         :    2 (Distributed Memory Parallel)               
MPI Type: INTELMPI
MPI Version: Intel(R) MPI Library 2018 Update 3 for Windows* OS


GPU Acceleration: Not Requested

Job Name: file0
Input File: dummy.dat

  Core                Machine Name   Working Directory
 -----------------------------------------------------
     0             DESKTOP-H2RNGL6   C:\Users\Akash Levy\Documents\NEM-Relay-CAD\_ProjectScratch\Scr77DF
     1             DESKTOP-H2RNGL6   C:\Users\Akash Levy\Documents\NEM-Relay-CAD\_ProjectScratch\Scr77DF
 
Latency time from master to core     1 =   20.690 microseconds
 
Communication speed from master to core     1 =   957.25 MB/sec

Total CPU time for main thread                    :      258.0 seconds
Total CPU time summed for all threads             :      261.6 seconds

Elapsed time spent obtaining a license            :        1.1 seconds
Elapsed time spent pre-processing model (/PREP7)  :        9.0 seconds
Elapsed time spent solution - preprocessing       :        1.6 seconds
Elapsed time spent computing solution             :      276.6 seconds
Elapsed time spent solution - postprocessing      :        6.4 seconds
Elapsed time spent post-processing model (/POST1) :        0.1 seconds
 
Equation solver used                              :            Sparse (unsymmetric)
Equation solver computational rate                :       16.4 Gflops
Equation solver effective I/O rate                :        4.7 GB/sec

Maximum total memory used                         :      343.0 MB
Maximum total memory allocated                    :     3136.0 MB
Total physical memory available                   :          4 GB

Total amount of I/O written to disk               :       10.2 GB
Total amount of I/O read from disk                :       21.0 GB

+------ E N D   D I S T R I B U T E D   A N S Y S   S T A T I S T I C S -------+


 *---------------------------------------------------------------------------*
 |                                                                           |
 |                       DISTRIBUTED ANSYS RUN COMPLETED                     |
 |                                                                           |
 |---------------------------------------------------------------------------|
 |                                                                           |
 | Ansys 2020 R1               Build 20.1         UP20191203     WINDOWS x64 |
 |                                                                           |
 |---------------------------------------------------------------------------|
 |                                                                           |
 | Database Requested(-db)  1024 MB    Scratch Memory Requested      1024 MB |
 | Maximum Database Used      12 MB    Maximum Scratch Memory Used    162 MB |
 |                                                                           |
 |---------------------------------------------------------------------------|
 |                                                                           |
 |        CP Time      (sec) =        261.578       Time  =  18:56:32        |
 |        Elapsed Time (sec) =        297.000       Date  =  04/05/2020      |
 |                                                                           |
 *---------------------------------------------------------------------------*
