
 ANSYS Mechanical Enterprise                       


 *------------------------------------------------------------------*
 |                                                                  |
 |   W E L C O M E   T O   T H E   A N S Y S (R)  P R O G R A M     |
 |                                                                  |
 *------------------------------------------------------------------*




 ***************************************************************
 *            ANSYS 2020 R1          LEGAL NOTICES             *
 ***************************************************************
 *                                                             *
 * Copyright 1971-2020 ANSYS, Inc.  All rights reserved.       *
 * Unauthorized use, distribution or duplication is            *
 * prohibited.                                                 *
 *                                                             *
 * Ansys is a registered trademark of ANSYS, Inc. or its       *
 * subsidiaries in the United States or other countries.       *
 * See the ANSYS, Inc. online documentation or the ANSYS, Inc. *
 * documentation CD or online help for the complete Legal      *
 * Notice.                                                     *
 *                                                             *
 ***************************************************************
 *                                                             *
 * THIS ANSYS SOFTWARE PRODUCT AND PROGRAM DOCUMENTATION       *
 * INCLUDE TRADE SECRETS AND CONFIDENTIAL AND PROPRIETARY      *
 * PRODUCTS OF ANSYS, INC., ITS SUBSIDIARIES, OR LICENSORS.    *
 * The software products and documentation are furnished by    *
 * ANSYS, Inc. or its subsidiaries under a software license    *
 * agreement that contains provisions concerning               *
 * non-disclosure, copying, length and nature of use,          *
 * compliance with exporting laws, warranties, disclaimers,    *
 * limitations of liability, and remedies, and other           *
 * provisions.  The software products and documentation may be *
 * used, disclosed, transferred, or copied only in accordance  *
 * with the terms and conditions of that software license      *
 * agreement.                                                  *
 *                                                             *
 * ANSYS, Inc. is a UL registered                              *
 * ISO 9001:2015 company.                                      *
 *                                                             *
 ***************************************************************
 *                                                             *
 * This product is subject to U.S. laws governing export and   *
 * re-export.                                                  *
 *                                                             *
 * For U.S. Government users, except as specifically granted   *
 * by the ANSYS, Inc. software license agreement, the use,     *
 * duplication, or disclosure by the United States Government  *
 * is subject to restrictions stated in the ANSYS, Inc.        *
 * software license agreement and FAR 12.212 (for non-DOD      *
 * licenses).                                                  *
 *                                                             *
 ***************************************************************

 2020 R1 
     
 Point Releases and Patches installed:   
     
 ANSYS, Inc. Products 2020 R1
 SpaceClaim 2020 R1  
 AIM 2020 R1 
 Live (includes SpaceClaim) 2020 R1  
 Autodyn 2020 R1 
 LS-DYNA 2020 R1 
 CFX (includes CFD-Post) 2020 R1 
 Chemkin 2020 R1 
 EnSight 2020 R1 
 FENSAP-ICE 2020 R1  
 Fluent (includes CFD-Post) 2020 R1  
 Forte 2020 R1   
 Polyflow (includes CFD-Post) 2020 R1
 TurboGrid 2020 R1   
 ICEM CFD 2020 R1
 Aqwa 2020 R1
 Customization Files for User Programmable Features 2020 R1  
 Mechanical Products 2020 R1 
 Additive 2020 R1
 ANSYS Sherlock 2020 R1  
 Icepak (includes CFD-Post) 2020 R1  
 ACIS Geometry Interface 2020 R1 
 AutoCAD Geometry Interface 2020 R1  
 Catia, Version 4 Geometry Interface 2020 R1 
 Catia, Version 5 Geometry Interface 2020 R1 
 Catia, Version 6 Geometry Interface 2020 R1 
 Creo Elements/Direct Modeling Geometry Interface 2020 R1
 Creo Parametric Geometry Interface 2020 R1  
 Inventor Geometry Interface 2020 R1 
 JTOpen Geometry Interface 2020 R1   
 NX Geometry Interface 2020 R1   
 Parasolid Geometry Interface  2020 R1   
 Solid Edge Geometry Interface 2020 R1   
 SOLIDWORKS Geometry Interface 2020 R1   
 ANSYS, Inc. License Manager 2020 R1 


          *****  ANSYS COMMAND LINE ARGUMENTS  *****
  BATCH MODE REQUESTED (-b)    = NOLIST
  INPUT FILE COPY MODE (-c)    = COPY
  DISTRIBUTED MEMORY PARALLEL REQUESTED
       2 PARALLEL PROCESSES REQUESTED WITH SINGLE THREAD PER PROCESS
    TOTAL OF     2 CORES REQUESTED
  INPUT FILE NAME              = C:\Users\Akash Levy\Documents\NEM-Relay-CAD\ansys\_ProjectScratch\ScrBE13\dummy.dat
  OUTPUT FILE NAME             = C:\Users\Akash Levy\Documents\NEM-Relay-CAD\ansys\_ProjectScratch\ScrBE13\solve.out
  START-UP FILE MODE           = NOREAD
  STOP FILE MODE               = NOREAD
  CONNECTION TO COUPLING SERVER REQUESTED
    SYSTEM NAME                = Solution 2
    HOST NAME                  = DESKTOP-H2RNGL6
    SERVER PORT REQUESTED      = 55254       

 RELEASE= 2020 R1              BUILD= 20.1      UP20191203   VERSION=WINDOWS x64 
 CURRENT JOBNAME=file0  08:17:28  APR 07, 2020 CP=      0.422


MAPDL is connecting to the system coupling service on DESKTOP-H2RNGL6 through port  55254 ...
   ... connected

 PARAMETER _DS_PROGRESS =     999.0000000    

 /INPUT FILE= ds.dat  LINE=       0



 *** NOTE ***                            CP =       0.562   TIME= 08:17:40
 The /CONFIG,NOELDB command is not valid in a Distributed ANSYS          
 solution.  Command is ignored.                                          

 *GET  _WALLSTRT  FROM  ACTI  ITEM=TIME WALL  VALUE=  8.29444444    

 TITLE= 
 relay--EM Transient (E5)                                                      


 SET PARAMETER DIMENSIONS ON  _WB_PROJECTSCRATCH_DIR
  TYPE=STRI  DIMENSIONS=      248        1        1

 PARAMETER _WB_PROJECTSCRATCH_DIR(1) = C:\Users\Akash Levy\Documents\NEM-Relay-CAD\ansys\_ProjectScratch\ScrBE13\

 SET PARAMETER DIMENSIONS ON  _WB_SOLVERFILES_DIR
  TYPE=STRI  DIMENSIONS=      248        1        1

 PARAMETER _WB_SOLVERFILES_DIR(1) = C:\Users\Akash Levy\Documents\NEM-Relay-CAD\ansys\relay_files\dp0\SYS-14\MECH\

 SET PARAMETER DIMENSIONS ON  _WB_USERFILES_DIR
  TYPE=STRI  DIMENSIONS=      248        1        1

 PARAMETER _WB_USERFILES_DIR(1) = C:\Users\Akash Levy\Documents\NEM-Relay-CAD\ansys\relay_files\user_files\
 --- Data in consistent MKS units. See Solving Units in the help system for more

 MKS UNITS SPECIFIED FOR INTERNAL    
  LENGTH        (l)  = METER (M)
  MASS          (M)  = KILOGRAM (KG)
  TIME          (t)  = SECOND (SEC)
  TEMPERATURE   (T)  = CELSIUS (C)
  TOFFSET            = 273.0
  CHARGE        (Q)  = COULOMB
  FORCE         (f)  = NEWTON (N) (KG-M/SEC2)
  HEAT               = JOULE (N-M)

  PRESSURE           = PASCAL (NEWTON/M**2)
  ENERGY        (W)  = JOULE (N-M)
  POWER         (P)  = WATT (N-M/SEC)
  CURRENT       (i)  = AMPERE (COULOMBS/SEC)
  CAPACITANCE   (C)  = FARAD
  INDUCTANCE    (L)  = HENRY
  MAGNETIC FLUX      = WEBER
  RESISTANCE    (R)  = OHM
  ELECTRIC POTENTIAL = VOLT

 INPUT  UNITS ARE ALSO SET TO MKS 

 *** ANSYS - ENGINEERING ANALYSIS SYSTEM  RELEASE 2020 R1          20.1     ***
 DISTRIBUTED ANSYS Mechanical Enterprise                       

 20120530  VERSION=WINDOWS x64   08:17:40  APR 07, 2020 CP=      0.562

 relay--EM Transient (E5)                                                      



          ***** ANSYS ANALYSIS DEFINITION (PREP7) *****
 *********** Nodes for the whole assembly ***********
 *********** Elements for Body 1 "Relay" ***********
 *********** Elements for Body 2 "Contact 1" ***********
 *********** Elements for Body 3 "Contact 2" ***********
 *********** Elements for Body 4 "Contact 3" ***********
 *********** Elements for Body 5 "Contact 4" ***********
 *********** Elements for Body 6 "Contact 5" ***********
 *********** Elements for Body 7 "Contact 6" ***********
 *********** Elements for Body 8 "Contact 7" ***********
 *********** Elements for Body 9 "Contact 8" ***********
 *********** Elements for Body 10 "Substrate" ***********
 *********** Send User Defined Coordinate System(s) ***********
 *********** Set Reference Temperature ***********
 *********** Send Materials ***********
 *********** Create Contact "Contact Region 11" ***********
             Real Constant Set For Above Contact Is 12 & 11
 *********** Create Contact "Contact Region 12" ***********
             Real Constant Set For Above Contact Is 14 & 13
 *********** Create Contact "Contact Region 13" ***********
             Real Constant Set For Above Contact Is 16 & 15
 *********** Create Contact "Contact Region 14" ***********
             Real Constant Set For Above Contact Is 18 & 17
 *********** Create Contact "Contact Region 15" ***********
             Real Constant Set For Above Contact Is 20 & 19
 *********** Create Contact "Contact Region 16" ***********
             Real Constant Set For Above Contact Is 22 & 21
 *********** Create Contact "Contact Region 17" ***********
             Real Constant Set For Above Contact Is 24 & 23
 *********** Create Contact "Contact Region 18" ***********
             Real Constant Set For Above Contact Is 26 & 25
 *********** Create Contact "Contact Region 19" ***********
             Real Constant Set For Above Contact Is 28 & 27
 *********** Send Named Selection as Node Component ***********
 *********** Fixed Supports ***********
 *********** Create FSI Flags ***********

 *** WARNING ***                         CP =       0.672   TIME= 08:17:40
 Some of the defined and selected elements did not require FSIN.  Use    
 the SFELIST,ALL,fluid-solid interaction surfaces command to view a      
 list of elements that did have the fluid-solid interaction surfaces     
 surface load stored.                                                    
 *********** Create Structural MEMS Load ***********
  
 *** EMTGEN Command Macro
  

 *** NOTE *** Display device has not yet been specified with the /SHOW command.  Display commands ignored. 

  LISTING OF THE DATA ON FILE _emtgen.out
  
  ____________________ EMTGEN MACRO SUMMARY ________________________
  
  Macro has generated successfully 1376 TRANS126 elements.
  
  Component of structural boundary nodes: _CMMEMS179 .
  Component name of generated EMT elements = EMTELM .
  Component name of generated EMT plane nodes = _CM179 .
  Active structural DOF for TRANS126 elements = UZ .
  Initial gap between I and J nodes of EMT element = -1.E-07 .
  Minimal gap between I and J nodes = 5.E-09 .
  Modulus of elasticity for EMT contact stiffness = 1.45E+09 .
  Free-space permittivity value = 8.854E-12 .
  EMT stiffness method = AUGM .
  
  ______________________________________________________________________


 ***** ROUTINE COMPLETED *****  CP =         8.797


 --- Number of total nodes = 12456
 --- Number of contact elements = 1302
 --- Number of spring elements = 0
 --- Number of bearing elements = 0
 --- Number of solid elements = 4431
 --- Number of condensed parts = 0
 --- Number of total elements = 7109

 *GET  _WALLBSOL  FROM  ACTI  ITEM=TIME WALL  VALUE=  8.29777778    
 ****************************************************************************
 *************************    SOLUTION       ********************************
 ****************************************************************************

 *****  ANSYS SOLUTION ROUTINE  *****


 PERFORM A TRANSIENT ANALYSIS
  THIS WILL BE A NEW ANALYSIS

 LARGE DEFORMATION ANALYSIS

 STEP BOUNDARY CONDITION KEY= 1

 PARAMETER _THICKRATIO =     0.000000000    

 USE SPARSE MATRIX DIRECT SOLVER

 CONTACT INFORMATION PRINTOUT LEVEL       1

 SUPPRESS THE FOLLOWING ITEMS FROM BEING WRITTEN TO THE RESULTS FILE:
  NONE                                                                                          

 DO NOT COMBINE ELEMENT MATRIX FILES (.emat) AFTER DISTRIBUTED PARALLEL SOLUTION

 DO NOT COMBINE ELEMENT SAVE DATA FILES (.esav) AFTER DISTRIBUTED PARALLEL SOLUTION

 WRITE ALL COMPONENTS TO THE COMPONENTS FILE.
 START WRITING AT THE BEGINNING OF FILE file.cm

 COMPONENTS WERE WRITTEN TO FILE= file.cm

 PERFORM A FULL TRANSIENT ANALYSIS
  USING HHT ALGORITHM

 USE SETTINGS FOR IMPACT APPLICATIONS
 SECOND ORDER TRANSIENT PARAMETERS
   GAMMA=  0.000      (ALPHA= 0.2500      DELTA= 0.5000    )

 USE DEFAULT FIRST ORDER TRANSIENT PARAMETER THETA= 0.5000    

 USE DEFAULT FIRST ORDER OSCILLATION LIMIT OF  0.5000     FOR AUTO LOADING
  WITH A TOLERANCE OF  0.2000    

 NLDIAG: Nonlinear diagnostics CONT option is set to ON. 
         Writing frequency : each ITERATION.

 A NEGATIVE FILM COEFFICIENT IS USED AS IS.

 DEFINE RESTART CONTROL FOR LOADSTEP ALL 
 AT FREQUENCY OF LAST AND NUMBER FOR OVERWRITE IS   -1

 DELETE RESTART FILES OF ENDSTEP
 ****************************************************
 ******************* SOLVE FOR LS 1 OF 1 ****************

 PRINTOUT RESUMED BY /GOP

 SPECIFIED CONSTRAINT VOLT FOR PICKED NODES 
 REAL=_LOADVARI179   IMAG=  0.00000000    

 SPECIFIED CONSTRAINT VOLT FOR PICKED NODES 
 REAL=  0.00000000       IMAG=  0.00000000    

 SPECIFIED CONSTRAINT UX   FOR PICKED NODES 
 REAL=  0.00000000       IMAG=  0.00000000    

 SPECIFIED CONSTRAINT UY   FOR PICKED NODES 
 REAL=  0.00000000       IMAG=  0.00000000    

 SPECIFIED CONSTRAINT UZ   FOR PICKED NODES 
 REAL=  0.00000000       IMAG=  0.00000000    

 ALL SELECT   FOR ITEM=NODE COMPONENT=    
  IN RANGE         1 TO      12456 STEP          1

      12456  NODES (OF      12456  DEFINED) SELECTED BY NSEL  COMMAND.

 ALL SELECT   FOR ITEM=ELEM COMPONENT=    
  IN RANGE         1 TO      10669 STEP          1

       7109  ELEMENTS (OF       7109  DEFINED) SELECTED BY  ESEL  COMMAND.

 DO NOT USE AUTOMATIC TIME STEPPING THIS LOAD STEP

 USE       1 SUBSTEPS INITIALLY THIS LOAD STEP FOR ALL  DEGREES OF FREEDOM
 FOR AUTOMATIC TIME STEPPING:
   USE      1 SUBSTEPS AS A MAXIMUM
   USE      1 SUBSTEPS AS A MINIMUM

 TIME= 0.50000E-08

 INCLUDE TRANSIENT EFFECTS FOR  ALL DEGREES OF FREEDOM THIS LOAD STEP

 ERASE THE CURRENT DATABASE OUTPUT CONTROL TABLE.


 WRITE ALL  ITEMS TO THE DATABASE WITH A FREQUENCY OF NONE
   FOR ALL APPLICABLE ENTITIES

 WRITE NSOL ITEMS TO THE DATABASE WITH A FREQUENCY OF ALL 
   FOR ALL APPLICABLE ENTITIES

 WRITE RSOL ITEMS TO THE DATABASE WITH A FREQUENCY OF ALL 
   FOR ALL APPLICABLE ENTITIES

 WRITE EANG ITEMS TO THE DATABASE WITH A FREQUENCY OF ALL 
   FOR ALL APPLICABLE ENTITIES

 WRITE ETMP ITEMS TO THE DATABASE WITH A FREQUENCY OF ALL 
   FOR ALL APPLICABLE ENTITIES

 WRITE VENG ITEMS TO THE DATABASE WITH A FREQUENCY OF ALL 
   FOR ALL APPLICABLE ENTITIES

 WRITE STRS ITEMS TO THE DATABASE WITH A FREQUENCY OF ALL 
   FOR ALL APPLICABLE ENTITIES

 WRITE EPEL ITEMS TO THE DATABASE WITH A FREQUENCY OF ALL 
   FOR ALL APPLICABLE ENTITIES

 WRITE EPPL ITEMS TO THE DATABASE WITH A FREQUENCY OF ALL 
   FOR ALL APPLICABLE ENTITIES

 WRITE CONT ITEMS TO THE DATABASE WITH A FREQUENCY OF ALL 
   FOR ALL APPLICABLE ENTITIES

 WRITE V    ITEMS TO THE DATABASE WITH A FREQUENCY OF ALL 
   FOR ALL APPLICABLE ENTITIES

 WRITE A    ITEMS TO THE DATABASE WITH A FREQUENCY OF ALL 
   FOR ALL APPLICABLE ENTITIES

 PARAMETER ARG1 =     4.700000000    

 PARAMETER ARG2 =    0.1000000000    

 PARAMETER EPSR =     4.700000000    

 PARAMETER KN =    0.1000000000    

 FINISH SOLUTION PROCESSING


 ***** ROUTINE COMPLETED *****  CP =         9.109



 *** ANSYS - ENGINEERING ANALYSIS SYSTEM  RELEASE 2020 R1          20.1     ***
 DISTRIBUTED ANSYS Mechanical Enterprise                       

 20120530  VERSION=WINDOWS x64   08:17:52  APR 07, 2020 CP=      9.109

                                                                               



          ***** ANSYS ANALYSIS DEFINITION (PREP7) *****

 SELECT       FOR ITEM=ENAM COMPONENT=    
  IN RANGE       126 TO        126 STEP          1

       1376  ELEMENTS (OF       7109  DEFINED) SELECTED BY  ESEL  COMMAND.

 *GET  NELEMS    FROM  ELEM  ITEM=COUN           VALUE=  1376.00000    

 PARAMETER ELM =     0.000000000    

 *DO LOOP ON PARAMETER= I FROM  1.0000     TO  1376.0     BY  1.0000    

 PARAMETER ELM =     9294.000000    

 *GET  RNUM      FROM  ELEM      9294  ITEM=ATTR REAL      VALUE=  29.0000000    

 *GET  R7        FROM  RCON     29  ITEM=CONS 7     VALUE= 0.109900488E-24

 PARAMETER R7_NEW =    0.5165322947E-24

 MODIFY REAL CONSTANTS FOR SET     29  STARTING WITH  7  NEW VALUES ARE

   0.51653E-24   0.0000       0.0000       0.0000       0.0000       0.0000    

 *GET  R5        FROM  RCON     29  ITEM=CONS 5     VALUE=  179.981599    

 PARAMETER R5_NEW =     17.99815992    

 MODIFY REAL CONSTANTS FOR SET     29  STARTING WITH  5  NEW VALUES ARE

    17.998       0.0000      0.51653E-24   0.0000       0.0000       0.0000    

 *ENDDO  INDEX= I                               


 ***** ROUTINE COMPLETED *****  CP =         9.500



 *****  ANSYS SOLUTION ROUTINE  *****

 SELECT ALL ENTITIES OF TYPE= ALL  AND BELOW

 *GET  ANSINTER_  FROM  ACTI  ITEM=INT        VALUE=  0.00000000    

 *IF  ANSINTER_                         ( =   0.00000     )  NE  
      0                                 ( =   0.00000     )  THEN    

 *ENDIF

 *** NOTE ***                            CP =       9.500   TIME= 08:17:52
 The automatic domain decomposition logic has selected the MESH domain   
 decomposition method with 2 processes per solution.                     

 *****  ANSYS SOLVE    COMMAND  *****

 *** NOTE ***                            CP =       9.625   TIME= 08:17:52
 There is no title defined for this analysis.                            

 *** WARNING ***                         CP =       9.625   TIME= 08:17:52
 Element shape checking is currently inactive.  Issue SHPP,ON or         
 SHPP,WARN to reactivate, if desired.                                    

 *** NOTE ***                            CP =       9.719   TIME= 08:17:53
 The model data was checked and warning messages were found.             
  Please review output or errors file ( C:\Users\Akash                   
 Levy\Documents\NEM-Relay-CAD\ansys\_ProjectScratch\ScrBE13\file0.err )  
 for these warning messages.                                             

 *** SELECTION OF ELEMENT TECHNOLOGIES FOR APPLICABLE ELEMENTS ***
      --- GIVE SUGGESTIONS AND RESET THE KEY OPTIONS ---

 ELEMENT TYPE    1 IS SOLID187. IT IS NOT ASSOCIATED WITH FULLY INCOMPRESSIBLE
 HYPERELASTIC MATERIALS. NO SUGGESTION IS AVAILABLE AND NO RESETTING IS NEEDED.

 ELEMENT TYPE    2 IS SOLID186. KEYOPT(2)=0 IS SUGGESTED AND HAS BEEN RESET.
  KEYOPT(1-12)=    0    0    0    0    0    0    0    0    0    0    0    0

 ELEMENT TYPE    3 IS SOLID186. KEYOPT(2)=0 IS SUGGESTED AND HAS BEEN RESET.
  KEYOPT(1-12)=    0    0    0    0    0    0    0    0    0    0    0    0

 ELEMENT TYPE    4 IS SOLID186. KEYOPT(2)=0 IS SUGGESTED AND HAS BEEN RESET.
  KEYOPT(1-12)=    0    0    0    0    0    0    0    0    0    0    0    0

 ELEMENT TYPE    5 IS SOLID186. KEYOPT(2)=0 IS SUGGESTED AND HAS BEEN RESET.
  KEYOPT(1-12)=    0    0    0    0    0    0    0    0    0    0    0    0

 ELEMENT TYPE    6 IS SOLID187. IT IS NOT ASSOCIATED WITH FULLY INCOMPRESSIBLE
 HYPERELASTIC MATERIALS. NO SUGGESTION IS AVAILABLE AND NO RESETTING IS NEEDED.

 ELEMENT TYPE    7 IS SOLID187. IT IS NOT ASSOCIATED WITH FULLY INCOMPRESSIBLE
 HYPERELASTIC MATERIALS. NO SUGGESTION IS AVAILABLE AND NO RESETTING IS NEEDED.

 ELEMENT TYPE    8 IS SOLID187. IT IS NOT ASSOCIATED WITH FULLY INCOMPRESSIBLE
 HYPERELASTIC MATERIALS. NO SUGGESTION IS AVAILABLE AND NO RESETTING IS NEEDED.

 ELEMENT TYPE    9 IS SOLID187. IT IS NOT ASSOCIATED WITH FULLY INCOMPRESSIBLE
 HYPERELASTIC MATERIALS. NO SUGGESTION IS AVAILABLE AND NO RESETTING IS NEEDED.

 ELEMENT TYPE   10 IS SOLID186. KEYOPT(2)=0 IS SUGGESTED AND HAS BEEN RESET.
  KEYOPT(1-12)=    0    0    0    0    0    0    0    0    0    0    0    0



 *** ANSYS - ENGINEERING ANALYSIS SYSTEM  RELEASE 2020 R1          20.1     ***
 DISTRIBUTED ANSYS Mechanical Enterprise                       

 20120530  VERSION=WINDOWS x64   08:17:53  APR 07, 2020 CP=      9.719

                                                                               



                       S O L U T I O N   O P T I O N S

   PROBLEM DIMENSIONALITY. . . . . . . . . . . . .3-D                  
   DEGREES OF FREEDOM. . . . . . UX   UY   UZ   VOLT
   ANALYSIS TYPE . . . . . . . . . . . . . . . . .TRANSIENT            
      SOLUTION METHOD. . . . . . . . . . . . . . .FULL                 
   OFFSET TEMPERATURE FROM ABSOLUTE ZERO . . . . .  273.15    
   NONLINEAR GEOMETRIC EFFECTS . . . . . . . . . .ON
   EQUATION SOLVER OPTION. . . . . . . . . . . . .SPARSE             
   NEWTON-RAPHSON OPTION . . . . . . . . . . . . .PROGRAM CHOSEN   
   GLOBALLY ASSEMBLED MATRIX . . . . . . . . . . .UNSYMMETRIC
   USE SYSTEM COUPLING . . . . . . . . . . . . . .YES

 *** NOTE ***                            CP =       9.734   TIME= 08:17:53
 The Solution Control Option is only valid for single field structural,  
 single field thermal, single field diffusion, coupled                   
 thermal-diffusion analyses and coupled-field analyses with structural   
 degrees of freedom.  The SOLCONTROL,ON command (if present) has been    
 de-activated.                                                           

 *** NOTE ***                            CP =       9.734   TIME= 08:17:53
 This nonlinear analysis defaults to using the full Newton-Raphson       
 solution procedure.  This can be modified using the NROPT command.      

 *** NOTE ***                            CP =       9.906   TIME= 08:17:53
 Symmetric Deformable- deformable contact pair identified by real        
 constant set 11 and contact element type 11 has been set up.  The       
 companion pair has real constant set ID 12.  Both pairs should have     
 the same behavior.                                                      
 ANSYS will deactivate the current pair and keep its companion pair,     
 resulting in asymmetric contact.                                        
 Small sliding logic is assumed
 Contact algorithm: Augmented Lagrange method
 Contact detection at: Gauss integration point
 Contact stiffness factor FKN                  10.000    
 The resulting initial contact stiffness      0.21047E+21
 Default penetration tolerance factor FTOLN   0.10000    
 The resulting penetration tolerance          0.13779E-07
 Default opening contact stiffness OPSF will be used.
 Default tangent stiffness factor FKT          1.0000    
 Default elastic slip factor SLTOL            0.50000E-02
 The resulting elastic slip tolerance         0.13102E-08
 Update contact stiffness at each iteration
 Default Max. friction stress TAUMAX          0.10000E+21
 Average contact surface length               0.26204E-06
 Average contact pair depth                   0.13779E-06
 Default pinball region factor PINB           0.50000    
 The resulting pinball region                 0.68895E-07
 Initial penetration/gap is excluded.
 Bonded contact (always) is defined.

 *** NOTE ***                            CP =       9.906   TIME= 08:17:53
 Max.  Initial penetration 0 was detected between contact element 8012   
 and target element 8093.                                                
 ****************************************
  

 *** NOTE ***                            CP =       9.906   TIME= 08:17:53
 Symmetric Deformable- deformable contact pair identified by real        
 constant set 12 and contact element type 11 has been set up.  The       
 companion pair has real constant set ID 11.  Both pairs should have     
 the same behavior.                                                      
 ANSYS will keep the current pair and deactivate its companion pair,     
 resulting in asymmetric contact.                                        
 Small sliding logic is assumed
 Contact algorithm: Augmented Lagrange method
 Contact detection at: Gauss integration point
 Contact stiffness factor FKN                  10.000    
 The resulting initial contact stiffness      0.21047E+21
 Default penetration tolerance factor FTOLN   0.10000    
 The resulting penetration tolerance          0.28801E-08
 Default opening contact stiffness OPSF will be used.
 Default tangent stiffness factor FKT          1.0000    
 Default elastic slip factor SLTOL            0.50000E-02
 The resulting elastic slip tolerance         0.31966E-09
 Update contact stiffness at each iteration
 Default Max. friction stress TAUMAX          0.10000E+21
 Average contact surface length               0.63931E-07
 Average contact pair depth                   0.28801E-07
 Default pinball region factor PINB           0.50000    
 The resulting pinball region                 0.14401E-07
 Initial penetration/gap is excluded.
 Bonded contact (always) is defined.

 *** NOTE ***                            CP =       9.906   TIME= 08:17:53
 Max.  Initial penetration 0 was detected between contact element 8030   
 and target element 8001.                                                
 ****************************************
  

 *** NOTE ***                            CP =       9.906   TIME= 08:17:53
 Symmetric Deformable- deformable contact pair identified by real        
 constant set 13 and contact element type 13 has been set up.  The       
 companion pair has real constant set ID 14.  Both pairs should have     
 the same behavior.                                                      
 ANSYS will deactivate the current pair and keep its companion pair,     
 resulting in asymmetric contact.                                        
 Small sliding logic is assumed
 Contact algorithm: Augmented Lagrange method
 Contact detection at: Gauss integration point
 Contact stiffness factor FKN                  10.000    
 The resulting initial contact stiffness      0.16482E+21
 Default penetration tolerance factor FTOLN   0.10000    
 The resulting penetration tolerance          0.17595E-07
 Default opening contact stiffness OPSF will be used.
 Default tangent stiffness factor FKT          1.0000    
 Default elastic slip factor SLTOL            0.50000E-02
 The resulting elastic slip tolerance         0.14235E-08
 Update contact stiffness at each iteration
 Default Max. friction stress TAUMAX          0.10000E+21
 Average contact surface length               0.28470E-06
 Average contact pair depth                   0.17595E-06
 Default pinball region factor PINB           0.50000    
 The resulting pinball region                 0.87975E-07
 Initial penetration/gap is excluded.
 Bonded contact (always) is defined.

 *** NOTE ***                            CP =       9.906   TIME= 08:17:53
 Max.  Initial penetration 0 was detected between contact element 8132   
 and target element 8188.                                                
 ****************************************
  

 *** NOTE ***                            CP =       9.906   TIME= 08:17:53
 Symmetric Deformable- deformable contact pair identified by real        
 constant set 14 and contact element type 13 has been set up.  The       
 companion pair has real constant set ID 13.  Both pairs should have     
 the same behavior.                                                      
 ANSYS will keep the current pair and deactivate its companion pair,     
 resulting in asymmetric contact.                                        
 Small sliding logic is assumed
 Contact algorithm: Augmented Lagrange method
 Contact detection at: Gauss integration point
 Contact stiffness factor FKN                  10.000    
 The resulting initial contact stiffness      0.16482E+21
 Default penetration tolerance factor FTOLN   0.10000    
 The resulting penetration tolerance          0.28801E-08
 Default opening contact stiffness OPSF will be used.
 Default tangent stiffness factor FKT          1.0000    
 Default elastic slip factor SLTOL            0.50000E-02
 The resulting elastic slip tolerance         0.31966E-09
 Update contact stiffness at each iteration
 Default Max. friction stress TAUMAX          0.10000E+21
 Average contact surface length               0.63931E-07
 Average contact pair depth                   0.28801E-07
 Default pinball region factor PINB           0.50000    
 The resulting pinball region                 0.14401E-07
 Initial penetration/gap is excluded.
 Bonded contact (always) is defined.

 *** NOTE ***                            CP =       9.906   TIME= 08:17:53
 Max.  Initial penetration 0 was detected between contact element 8146   
 and target element 8128.                                                
 ****************************************
  

 *** NOTE ***                            CP =       9.906   TIME= 08:17:53
 Symmetric Deformable- deformable contact pair identified by real        
 constant set 15 and contact element type 15 has been set up.  The       
 companion pair has real constant set ID 16.  Both pairs should have     
 the same behavior.                                                      
 ANSYS will deactivate the current pair and keep its companion pair,     
 resulting in asymmetric contact.                                        
 Small sliding logic is assumed
 Contact algorithm: Augmented Lagrange method
 Contact detection at: Gauss integration point
 Contact stiffness factor FKN                  10.000    
 The resulting initial contact stiffness      0.23299E+21
 Default penetration tolerance factor FTOLN   0.10000    
 The resulting penetration tolerance          0.12447E-07
 Default opening contact stiffness OPSF will be used.
 Default tangent stiffness factor FKT          1.0000    
 Default elastic slip factor SLTOL            0.50000E-02
 The resulting elastic slip tolerance         0.13138E-08
 Update contact stiffness at each iteration
 Default Max. friction stress TAUMAX          0.10000E+21
 Average contact surface length               0.26277E-06
 Average contact pair depth                   0.12447E-06
 Default pinball region factor PINB           0.50000    
 The resulting pinball region                 0.62235E-07
 Initial penetration/gap is excluded.
 Bonded contact (always) is defined.

 *** NOTE ***                            CP =       9.906   TIME= 08:17:53
 Max.  Initial penetration 0 was detected between contact element 8250   
 and target element 8334.                                                
 ****************************************
  

 *** NOTE ***                            CP =       9.922   TIME= 08:17:53
 Symmetric Deformable- deformable contact pair identified by real        
 constant set 16 and contact element type 15 has been set up.  The       
 companion pair has real constant set ID 15.  Both pairs should have     
 the same behavior.                                                      
 ANSYS will keep the current pair and deactivate its companion pair,     
 resulting in asymmetric contact.                                        
 Small sliding logic is assumed
 Contact algorithm: Augmented Lagrange method
 Contact detection at: Gauss integration point
 Contact stiffness factor FKN                  10.000    
 The resulting initial contact stiffness      0.23299E+21
 Default penetration tolerance factor FTOLN   0.10000    
 The resulting penetration tolerance          0.28801E-08
 Default opening contact stiffness OPSF will be used.
 Default tangent stiffness factor FKT          1.0000    
 Default elastic slip factor SLTOL            0.50000E-02
 The resulting elastic slip tolerance         0.31966E-09
 Update contact stiffness at each iteration
 Default Max. friction stress TAUMAX          0.10000E+21
 Average contact surface length               0.63931E-07
 Average contact pair depth                   0.28801E-07
 Default pinball region factor PINB           0.50000    
 The resulting pinball region                 0.14401E-07
 Initial penetration/gap is excluded.
 Bonded contact (always) is defined.

 *** NOTE ***                            CP =       9.922   TIME= 08:17:53
 Max.  Initial penetration 0 was detected between contact element 8268   
 and target element 8237.                                                
 ****************************************
  

 *** NOTE ***                            CP =       9.922   TIME= 08:17:53
 Symmetric Deformable- deformable contact pair identified by real        
 constant set 17 and contact element type 17 has been set up.  The       
 companion pair has real constant set ID 18.  Both pairs should have     
 the same behavior.                                                      
 ANSYS will deactivate the current pair and keep its companion pair,     
 resulting in asymmetric contact.                                        
 Small sliding logic is assumed
 Contact algorithm: Augmented Lagrange method
 Contact detection at: Gauss integration point
 Contact stiffness factor FKN                  10.000    
 The resulting initial contact stiffness      0.18302E+21
 Default penetration tolerance factor FTOLN   0.10000    
 The resulting penetration tolerance          0.15845E-07
 Default opening contact stiffness OPSF will be used.
 Default tangent stiffness factor FKT          1.0000    
 Default elastic slip factor SLTOL            0.50000E-02
 The resulting elastic slip tolerance         0.14806E-08
 Update contact stiffness at each iteration
 Default Max. friction stress TAUMAX          0.10000E+21
 Average contact surface length               0.29613E-06
 Average contact pair depth                   0.15845E-06
 Default pinball region factor PINB           0.50000    
 The resulting pinball region                 0.79227E-07
 Initial penetration/gap is excluded.
 Bonded contact (always) is defined.

 *** NOTE ***                            CP =       9.922   TIME= 08:17:53
 Max.  Initial penetration 0 was detected between contact element 8368   
 and target element 8453.                                                
 ****************************************
  

 *** NOTE ***                            CP =       9.922   TIME= 08:17:53
 Symmetric Deformable- deformable contact pair identified by real        
 constant set 18 and contact element type 17 has been set up.  The       
 companion pair has real constant set ID 17.  Both pairs should have     
 the same behavior.                                                      
 ANSYS will keep the current pair and deactivate its companion pair,     
 resulting in asymmetric contact.                                        
 Small sliding logic is assumed
 Contact algorithm: Augmented Lagrange method
 Contact detection at: Gauss integration point
 Contact stiffness factor FKN                  10.000    
 The resulting initial contact stiffness      0.18302E+21
 Default penetration tolerance factor FTOLN   0.10000    
 The resulting penetration tolerance          0.28801E-08
 Default opening contact stiffness OPSF will be used.
 Default tangent stiffness factor FKT          1.0000    
 Default elastic slip factor SLTOL            0.50000E-02
 The resulting elastic slip tolerance         0.31966E-09
 Update contact stiffness at each iteration
 Default Max. friction stress TAUMAX          0.10000E+21
 Average contact surface length               0.63931E-07
 Average contact pair depth                   0.28801E-07
 Default pinball region factor PINB           0.50000    
 The resulting pinball region                 0.14401E-07
 Initial penetration/gap is excluded.
 Bonded contact (always) is defined.

 *** NOTE ***                            CP =       9.922   TIME= 08:17:53
 Max.  Initial penetration 0 was detected between contact element 8384   
 and target element 8364.                                                
 ****************************************
  

 *** NOTE ***                            CP =       9.922   TIME= 08:17:53
 Symmetric Deformable- deformable contact pair identified by real        
 constant set 19 and contact element type 19 has been set up.  The       
 companion pair has real constant set ID 20.  Both pairs should have     
 the same behavior.                                                      
 ANSYS will deactivate the current pair and keep its companion pair,     
 resulting in asymmetric contact.                                        
 Small sliding logic is assumed
 Contact algorithm: Augmented Lagrange method
 Contact detection at: Gauss integration point
 Contact stiffness factor FKN                  10.000    
 The resulting initial contact stiffness      0.21572E+21
 Default penetration tolerance factor FTOLN   0.10000    
 The resulting penetration tolerance          0.13444E-07
 Default opening contact stiffness OPSF will be used.
 Default tangent stiffness factor FKT          1.0000    
 Default elastic slip factor SLTOL            0.50000E-02
 The resulting elastic slip tolerance         0.11339E-08
 Update contact stiffness at each iteration
 Default Max. friction stress TAUMAX          0.10000E+21
 Average contact surface length               0.22677E-06
 Average contact pair depth                   0.13444E-06
 Default pinball region factor PINB           0.50000    
 The resulting pinball region                 0.67218E-07
 Initial penetration/gap is excluded.
 Bonded contact (always) is defined.

 *** NOTE ***                            CP =       9.922   TIME= 08:17:53
 Max.  Initial penetration 0 was detected between contact element 8508   
 and target element 8648.                                                
 ****************************************
  

 *** NOTE ***                            CP =       9.922   TIME= 08:17:53
 Symmetric Deformable- deformable contact pair identified by real        
 constant set 20 and contact element type 19 has been set up.  The       
 companion pair has real constant set ID 19.  Both pairs should have     
 the same behavior.                                                      
 ANSYS will keep the current pair and deactivate its companion pair,     
 resulting in asymmetric contact.                                        
 Small sliding logic is assumed
 Contact algorithm: Augmented Lagrange method
 Contact detection at: Gauss integration point
 Contact stiffness factor FKN                  10.000    
 The resulting initial contact stiffness      0.21572E+21
 Default penetration tolerance factor FTOLN   0.10000    
 The resulting penetration tolerance          0.27857E-08
 Default opening contact stiffness OPSF will be used.
 Default tangent stiffness factor FKT          1.0000    
 Default elastic slip factor SLTOL            0.50000E-02
 The resulting elastic slip tolerance         0.43591E-09
 Update contact stiffness at each iteration
 Default Max. friction stress TAUMAX          0.10000E+21
 Average contact surface length               0.87182E-07
 Average contact pair depth                   0.27857E-07
 Default pinball region factor PINB           0.50000    
 The resulting pinball region                 0.13929E-07
 Initial penetration/gap is excluded.
 Bonded contact (always) is defined.

 *** NOTE ***                            CP =       9.922   TIME= 08:17:53
 Max.  Initial penetration 0 was detected between contact element 8548   
 and target element 8493.                                                
 ****************************************
  

 *** NOTE ***                            CP =       9.922   TIME= 08:17:53
 Symmetric Deformable- deformable contact pair identified by real        
 constant set 21 and contact element type 21 has been set up.  The       
 companion pair has real constant set ID 22.  Both pairs should have     
 the same behavior.                                                      
 ANSYS will deactivate the current pair and keep its companion pair,     
 resulting in asymmetric contact.                                        
 Small sliding logic is assumed
 Contact algorithm: Augmented Lagrange method
 Contact detection at: Gauss integration point
 Contact stiffness factor FKN                  10.000    
 The resulting initial contact stiffness      0.23062E+21
 Default penetration tolerance factor FTOLN   0.10000    
 The resulting penetration tolerance          0.12575E-07
 Default opening contact stiffness OPSF will be used.
 Default tangent stiffness factor FKT          1.0000    
 Default elastic slip factor SLTOL            0.50000E-02
 The resulting elastic slip tolerance         0.11228E-08
 Update contact stiffness at each iteration
 Default Max. friction stress TAUMAX          0.10000E+21
 Average contact surface length               0.22456E-06
 Average contact pair depth                   0.12575E-06
 Default pinball region factor PINB           0.50000    
 The resulting pinball region                 0.62873E-07
 Initial penetration/gap is excluded.
 Bonded contact (always) is defined.

 *** NOTE ***                            CP =       9.922   TIME= 08:17:53
 Max.  Initial penetration 0 was detected between contact element 8692   
 and target element 8801.                                                
 ****************************************
  

 *** NOTE ***                            CP =       9.922   TIME= 08:17:53
 Symmetric Deformable- deformable contact pair identified by real        
 constant set 22 and contact element type 21 has been set up.  The       
 companion pair has real constant set ID 21.  Both pairs should have     
 the same behavior.                                                      
 ANSYS will keep the current pair and deactivate its companion pair,     
 resulting in asymmetric contact.                                        
 Small sliding logic is assumed
 Contact algorithm: Augmented Lagrange method
 Contact detection at: Gauss integration point
 Contact stiffness factor FKN                  10.000    
 The resulting initial contact stiffness      0.23062E+21
 Default penetration tolerance factor FTOLN   0.10000    
 The resulting penetration tolerance          0.29165E-08
 Default opening contact stiffness OPSF will be used.
 Default tangent stiffness factor FKT          1.0000    
 Default elastic slip factor SLTOL            0.50000E-02
 The resulting elastic slip tolerance         0.46244E-09
 Update contact stiffness at each iteration
 Default Max. friction stress TAUMAX          0.10000E+21
 Average contact surface length               0.92489E-07
 Average contact pair depth                   0.29165E-07
 Default pinball region factor PINB           0.50000    
 The resulting pinball region                 0.14582E-07
 Initial penetration/gap is excluded.
 Bonded contact (always) is defined.

 *** NOTE ***                            CP =       9.922   TIME= 08:17:53
 Max.  Initial penetration 0 was detected between contact element 8732   
 and target element 8689.                                                
 ****************************************
  

 *** NOTE ***                            CP =       9.922   TIME= 08:17:53
 Symmetric Deformable- deformable contact pair identified by real        
 constant set 23 and contact element type 23 has been set up.  The       
 companion pair has real constant set ID 24.  Both pairs should have     
 the same behavior.                                                      
 ANSYS will deactivate the current pair and keep its companion pair,     
 resulting in asymmetric contact.                                        
 Small sliding logic is assumed
 Contact algorithm: Augmented Lagrange method
 Contact detection at: Gauss integration point
 Contact stiffness factor FKN                  10.000    
 The resulting initial contact stiffness      0.22884E+21
 Default penetration tolerance factor FTOLN   0.10000    
 The resulting penetration tolerance          0.12673E-07
 Default opening contact stiffness OPSF will be used.
 Default tangent stiffness factor FKT          1.0000    
 Default elastic slip factor SLTOL            0.50000E-02
 The resulting elastic slip tolerance         0.11016E-08
 Update contact stiffness at each iteration
 Default Max. friction stress TAUMAX          0.10000E+21
 Average contact surface length               0.22033E-06
 Average contact pair depth                   0.12673E-06
 Default pinball region factor PINB           0.50000    
 The resulting pinball region                 0.63363E-07
 Initial penetration/gap is excluded.
 Bonded contact (always) is defined.

 *** NOTE ***                            CP =       9.922   TIME= 08:17:53
 Max.  Initial penetration 0 was detected between contact element 8872   
 and target element 8981.                                                
 ****************************************
  

 *** NOTE ***                            CP =       9.922   TIME= 08:17:53
 Symmetric Deformable- deformable contact pair identified by real        
 constant set 24 and contact element type 23 has been set up.  The       
 companion pair has real constant set ID 23.  Both pairs should have     
 the same behavior.                                                      
 ANSYS will keep the current pair and deactivate its companion pair,     
 resulting in asymmetric contact.                                        
 Small sliding logic is assumed
 Contact algorithm: Augmented Lagrange method
 Contact detection at: Gauss integration point
 Contact stiffness factor FKN                  10.000    
 The resulting initial contact stiffness      0.22884E+21
 Default penetration tolerance factor FTOLN   0.10000    
 The resulting penetration tolerance          0.25751E-08
 Default opening contact stiffness OPSF will be used.
 Default tangent stiffness factor FKT          1.0000    
 Default elastic slip factor SLTOL            0.50000E-02
 The resulting elastic slip tolerance         0.40073E-09
 Update contact stiffness at each iteration
 Default Max. friction stress TAUMAX          0.10000E+21
 Average contact surface length               0.80146E-07
 Average contact pair depth                   0.25751E-07
 Default pinball region factor PINB           0.50000    
 The resulting pinball region                 0.12876E-07
 Initial penetration/gap is excluded.
 Bonded contact (always) is defined.

 *** NOTE ***                            CP =       9.922   TIME= 08:17:53
 Max.  Initial penetration 0 was detected between contact element 8916   
 and target element 8835.                                                
 ****************************************
  

 *** NOTE ***                            CP =       9.922   TIME= 08:17:53
 Symmetric Deformable- deformable contact pair identified by real        
 constant set 25 and contact element type 25 has been set up.  The       
 companion pair has real constant set ID 26.  Both pairs should have     
 the same behavior.                                                      
 ANSYS will deactivate the current pair and keep its companion pair,     
 resulting in asymmetric contact.                                        
 Small sliding logic is assumed
 Contact algorithm: Augmented Lagrange method
 Contact detection at: Gauss integration point
 Contact stiffness factor FKN                  10.000    
 The resulting initial contact stiffness      0.20339E+21
 Default penetration tolerance factor FTOLN   0.10000    
 The resulting penetration tolerance          0.14259E-07
 Default opening contact stiffness OPSF will be used.
 Default tangent stiffness factor FKT          1.0000    
 Default elastic slip factor SLTOL            0.50000E-02
 The resulting elastic slip tolerance         0.11180E-08
 Update contact stiffness at each iteration
 Default Max. friction stress TAUMAX          0.10000E+21
 Average contact surface length               0.22359E-06
 Average contact pair depth                   0.14259E-06
 Default pinball region factor PINB           0.50000    
 The resulting pinball region                 0.71293E-07
 Initial penetration/gap is excluded.
 Bonded contact (always) is defined.

 *** NOTE ***                            CP =       9.922   TIME= 08:17:53
 Max.  Initial penetration 0 was detected between contact element 9070   
 and target element 9187.                                                
 ****************************************
  

 *** NOTE ***                            CP =       9.922   TIME= 08:17:53
 Symmetric Deformable- deformable contact pair identified by real        
 constant set 26 and contact element type 25 has been set up.  The       
 companion pair has real constant set ID 25.  Both pairs should have     
 the same behavior.                                                      
 ANSYS will keep the current pair and deactivate its companion pair,     
 resulting in asymmetric contact.                                        
 Small sliding logic is assumed
 Contact algorithm: Augmented Lagrange method
 Contact detection at: Gauss integration point
 Contact stiffness factor FKN                  10.000    
 The resulting initial contact stiffness      0.20339E+21
 Default penetration tolerance factor FTOLN   0.10000    
 The resulting penetration tolerance          0.27858E-08
 Default opening contact stiffness OPSF will be used.
 Default tangent stiffness factor FKT          1.0000    
 Default elastic slip factor SLTOL            0.50000E-02
 The resulting elastic slip tolerance         0.43414E-09
 Update contact stiffness at each iteration
 Default Max. friction stress TAUMAX          0.10000E+21
 Average contact surface length               0.86829E-07
 Average contact pair depth                   0.27858E-07
 Default pinball region factor PINB           0.50000    
 The resulting pinball region                 0.13929E-07
 Initial penetration/gap is excluded.
 Bonded contact (always) is defined.

 *** NOTE ***                            CP =       9.922   TIME= 08:17:53
 Max.  Initial penetration 0 was detected between contact element 9110   
 and target element 9050.                                                
 ****************************************
  

 *** NOTE ***                            CP =       9.922   TIME= 08:17:53
 Symmetric Deformable- deformable contact pair identified by real        
 constant set 27 and contact element type 27 has been set up.  The       
 companion pair has real constant set ID 28.  Both pairs should have     
 the same behavior.                                                      
 ANSYS will keep the current pair and deactivate its companion pair,     
 resulting in asymmetric contact.                                        
 Small sliding logic is assumed
 Contact algorithm: Augmented Lagrange method
 Contact detection at: Gauss integration point
 Contact stiffness factor FKN                  10.000    
 The resulting initial contact stiffness      0.25329E+21
 Default penetration tolerance factor FTOLN   0.10000    
 The resulting penetration tolerance          0.11449E-07
 Default opening contact stiffness OPSF will be used.
 Default tangent stiffness factor FKT          1.0000    
 Default elastic slip factor SLTOL            0.50000E-02
 The resulting elastic slip tolerance         0.13435E-08
 Update contact stiffness at each iteration
 Default Max. friction stress TAUMAX          0.10000E+21
 Average contact surface length               0.26871E-06
 Average contact pair depth                   0.11449E-06
 Default pinball region factor PINB           0.50000    
 The resulting pinball region                 0.57246E-07
 Initial penetration/gap is excluded.
 Bonded contact (always) is defined.

 *** NOTE ***                            CP =       9.922   TIME= 08:17:53
 Max.  Initial penetration 3.97046694E-23 was detected between contact   
 element 9241 and target element 9293.                                   
 ****************************************
  

 *** NOTE ***                            CP =       9.922   TIME= 08:17:53
 Symmetric Deformable- deformable contact pair identified by real        
 constant set 28 and contact element type 27 has been set up.  The       
 companion pair has real constant set ID 27.  Both pairs should have     
 the same behavior.                                                      
 ANSYS will deactivate the current pair and keep its companion pair,     
 resulting in asymmetric contact.                                        
 Small sliding logic is assumed
 Contact algorithm: Augmented Lagrange method
 Contact detection at: Gauss integration point
 Default contact stiffness factor FKN          1.0000    
 The resulting initial contact stiffness      0.25329E+20
 Default penetration tolerance factor FTOLN   0.10000    
 The resulting penetration tolerance          0.18000E-07
 Default opening contact stiffness OPSF will be used.
 Default tangent stiffness factor FKT          1.0000    
 Default elastic slip factor SLTOL            0.50000E-02
 The resulting elastic slip tolerance         0.30000E-08
 Update contact stiffness at each iteration
 Default Max. friction stress TAUMAX          0.10000E+21
 Average contact surface length               0.60000E-06
 Average contact pair depth                   0.18000E-06
 Default pinball region factor PINB           0.50000    
 The resulting pinball region                 0.90000E-07
 Initial penetration/gap is excluded.
 Bonded contact (always) is defined.

 *** NOTE ***                            CP =       9.922   TIME= 08:17:53
 Max.  Initial penetration 1.32348898E-23 was detected between contact   
 element 9274 and target element 9237.                                   
 ****************************************
  

 *** WARNING ***                         CP =       9.922   TIME= 08:17:53
 Maximum contact stiffness 2.532948841E+20 is too big which can cause an 
 accuracy problem, you may scale the force units in the model.           

 *** WARNING ***                         CP =       9.922   TIME= 08:17:53
 Minimum contact depth 2.575118698E-08 is too small which can cause an   
 accuracy problem, you may scale the length units in the model.          
  
  

  
  
     D I S T R I B U T E D   D O M A I N   D E C O M P O S E R
  
  ...Number of elements: 7109
  ...Number of nodes:    12456
  ...Decompose to 2 CPU domains
  ...Element load balance ratio =     1.221


 *** NOTE ***                            CP =      10.547   TIME= 08:17:54
 Symmetric Deformable- deformable contact pair identified by real        
 constant set 13 and contact element type 13 has been set up.  The       
 companion pair has real constant set ID 14.  Both pairs should have     
 the same behavior.                                                      
 ANSYS will deactivate the current pair and keep its companion pair,     
 resulting in asymmetric contact.                                        
 Small sliding logic is assumed
 Contact algorithm: Augmented Lagrange method
 Contact detection at: Gauss integration point
 Contact stiffness factor FKN                  10.000    
 The resulting initial contact stiffness      0.16482E+21
 Default penetration tolerance factor FTOLN   0.10000    
 The resulting penetration tolerance          0.17595E-07
 Default opening contact stiffness OPSF will be used.
 Default tangent stiffness factor FKT          1.0000    
 Default elastic slip factor SLTOL            0.50000E-02
 The resulting elastic slip tolerance         0.14235E-08
 Update contact stiffness at each iteration
 Default Max. friction stress TAUMAX          0.10000E+21
 Average contact surface length               0.28470E-06
 Average contact pair depth                   0.17595E-06
 Default pinball region factor PINB           0.50000    
 The resulting pinball region                 0.87975E-07
 Initial penetration/gap is excluded.
 Bonded contact (always) is defined.

 *** NOTE ***                            CP =      10.547   TIME= 08:17:54
 Max.  Initial penetration 0 was detected between contact element 8132   
 and target element 8188.                                                
 ****************************************
  

 *** NOTE ***                            CP =      10.547   TIME= 08:17:54
 Symmetric Deformable- deformable contact pair identified by real        
 constant set 14 and contact element type 13 has been set up.  The       
 companion pair has real constant set ID 13.  Both pairs should have     
 the same behavior.                                                      
 ANSYS will keep the current pair and deactivate its companion pair,     
 resulting in asymmetric contact.                                        
 Small sliding logic is assumed
 Contact algorithm: Augmented Lagrange method
 Contact detection at: Gauss integration point
 Contact stiffness factor FKN                  10.000    
 The resulting initial contact stiffness      0.16482E+21
 Default penetration tolerance factor FTOLN   0.10000    
 The resulting penetration tolerance          0.28801E-08
 Default opening contact stiffness OPSF will be used.
 Default tangent stiffness factor FKT          1.0000    
 Default elastic slip factor SLTOL            0.50000E-02
 The resulting elastic slip tolerance         0.31966E-09
 Update contact stiffness at each iteration
 Default Max. friction stress TAUMAX          0.10000E+21
 Average contact surface length               0.63931E-07
 Average contact pair depth                   0.28801E-07
 Default pinball region factor PINB           0.50000    
 The resulting pinball region                 0.14401E-07
 Initial penetration/gap is excluded.
 Bonded contact (always) is defined.

 *** NOTE ***                            CP =      10.547   TIME= 08:17:54
 Max.  Initial penetration 0 was detected between contact element 8146   
 and target element 8128.                                                
 ****************************************
  

 *** NOTE ***                            CP =      10.547   TIME= 08:17:54
 Symmetric Deformable- deformable contact pair identified by real        
 constant set 17 and contact element type 17 has been set up.  The       
 companion pair has real constant set ID 18.  Both pairs should have     
 the same behavior.                                                      
 ANSYS will deactivate the current pair and keep its companion pair,     
 resulting in asymmetric contact.                                        
 Small sliding logic is assumed
 Contact algorithm: Augmented Lagrange method
 Contact detection at: Gauss integration point
 Contact stiffness factor FKN                  10.000    
 The resulting initial contact stiffness      0.18302E+21
 Default penetration tolerance factor FTOLN   0.10000    
 The resulting penetration tolerance          0.15845E-07
 Default opening contact stiffness OPSF will be used.
 Default tangent stiffness factor FKT          1.0000    
 Default elastic slip factor SLTOL            0.50000E-02
 The resulting elastic slip tolerance         0.14806E-08
 Update contact stiffness at each iteration
 Default Max. friction stress TAUMAX          0.10000E+21
 Average contact surface length               0.29613E-06
 Average contact pair depth                   0.15845E-06
 Default pinball region factor PINB           0.50000    
 The resulting pinball region                 0.79227E-07
 Initial penetration/gap is excluded.
 Bonded contact (always) is defined.

 *** NOTE ***                            CP =      10.547   TIME= 08:17:54
 Max.  Initial penetration 0 was detected between contact element 8368   
 and target element 8453.                                                
 ****************************************
  

 *** NOTE ***                            CP =      10.547   TIME= 08:17:54
 Symmetric Deformable- deformable contact pair identified by real        
 constant set 18 and contact element type 17 has been set up.  The       
 companion pair has real constant set ID 17.  Both pairs should have     
 the same behavior.                                                      
 ANSYS will keep the current pair and deactivate its companion pair,     
 resulting in asymmetric contact.                                        
 Small sliding logic is assumed
 Contact algorithm: Augmented Lagrange method
 Contact detection at: Gauss integration point
 Contact stiffness factor FKN                  10.000    
 The resulting initial contact stiffness      0.18302E+21
 Default penetration tolerance factor FTOLN   0.10000    
 The resulting penetration tolerance          0.28801E-08
 Default opening contact stiffness OPSF will be used.
 Default tangent stiffness factor FKT          1.0000    
 Default elastic slip factor SLTOL            0.50000E-02
 The resulting elastic slip tolerance         0.31966E-09
 Update contact stiffness at each iteration
 Default Max. friction stress TAUMAX          0.10000E+21
 Average contact surface length               0.63931E-07
 Average contact pair depth                   0.28801E-07
 Default pinball region factor PINB           0.50000    
 The resulting pinball region                 0.14401E-07
 Initial penetration/gap is excluded.
 Bonded contact (always) is defined.

 *** NOTE ***                            CP =      10.547   TIME= 08:17:54
 Max.  Initial penetration 0 was detected between contact element 8384   
 and target element 8364.                                                
 ****************************************
  

 *** NOTE ***                            CP =      10.547   TIME= 08:17:54
 Symmetric Deformable- deformable contact pair identified by real        
 constant set 21 and contact element type 21 has been set up.  The       
 companion pair has real constant set ID 22.  Both pairs should have     
 the same behavior.                                                      
 ANSYS will deactivate the current pair and keep its companion pair,     
 resulting in asymmetric contact.                                        
 Small sliding logic is assumed
 Contact algorithm: Augmented Lagrange method
 Contact detection at: Gauss integration point
 Contact stiffness factor FKN                  10.000    
 The resulting initial contact stiffness      0.23062E+21
 Default penetration tolerance factor FTOLN   0.10000    
 The resulting penetration tolerance          0.12575E-07
 Default opening contact stiffness OPSF will be used.
 Default tangent stiffness factor FKT          1.0000    
 Default elastic slip factor SLTOL            0.50000E-02
 The resulting elastic slip tolerance         0.11228E-08
 Update contact stiffness at each iteration
 Default Max. friction stress TAUMAX          0.10000E+21
 Average contact surface length               0.22456E-06
 Average contact pair depth                   0.12575E-06
 Default pinball region factor PINB           0.50000    
 The resulting pinball region                 0.62873E-07
 Initial penetration/gap is excluded.
 Bonded contact (always) is defined.

 *** NOTE ***                            CP =      10.562   TIME= 08:17:54
 Max.  Initial penetration 0 was detected between contact element 8692   
 and target element 8801.                                                
 ****************************************
  

 *** NOTE ***                            CP =      10.562   TIME= 08:17:54
 Symmetric Deformable- deformable contact pair identified by real        
 constant set 22 and contact element type 21 has been set up.  The       
 companion pair has real constant set ID 21.  Both pairs should have     
 the same behavior.                                                      
 ANSYS will keep the current pair and deactivate its companion pair,     
 resulting in asymmetric contact.                                        
 Small sliding logic is assumed
 Contact algorithm: Augmented Lagrange method
 Contact detection at: Gauss integration point
 Contact stiffness factor FKN                  10.000    
 The resulting initial contact stiffness      0.23062E+21
 Default penetration tolerance factor FTOLN   0.10000    
 The resulting penetration tolerance          0.29165E-08
 Default opening contact stiffness OPSF will be used.
 Default tangent stiffness factor FKT          1.0000    
 Default elastic slip factor SLTOL            0.50000E-02
 The resulting elastic slip tolerance         0.46244E-09
 Update contact stiffness at each iteration
 Default Max. friction stress TAUMAX          0.10000E+21
 Average contact surface length               0.92489E-07
 Average contact pair depth                   0.29165E-07
 Default pinball region factor PINB           0.50000    
 The resulting pinball region                 0.14582E-07
 Initial penetration/gap is excluded.
 Bonded contact (always) is defined.

 *** NOTE ***                            CP =      10.562   TIME= 08:17:54
 Max.  Initial penetration 0 was detected between contact element 8732   
 and target element 8689.                                                
 ****************************************
  

 *** NOTE ***                            CP =      10.562   TIME= 08:17:54
 Symmetric Deformable- deformable contact pair identified by real        
 constant set 25 and contact element type 25 has been set up.  The       
 companion pair has real constant set ID 26.  Both pairs should have     
 the same behavior.                                                      
 ANSYS will deactivate the current pair and keep its companion pair,     
 resulting in asymmetric contact.                                        
 Small sliding logic is assumed
 Contact algorithm: Augmented Lagrange method
 Contact detection at: Gauss integration point
 Contact stiffness factor FKN                  10.000    
 The resulting initial contact stiffness      0.20339E+21
 Default penetration tolerance factor FTOLN   0.10000    
 The resulting penetration tolerance          0.14259E-07
 Default opening contact stiffness OPSF will be used.
 Default tangent stiffness factor FKT          1.0000    
 Default elastic slip factor SLTOL            0.50000E-02
 The resulting elastic slip tolerance         0.11180E-08
 Update contact stiffness at each iteration
 Default Max. friction stress TAUMAX          0.10000E+21
 Average contact surface length               0.22359E-06
 Average contact pair depth                   0.14259E-06
 Default pinball region factor PINB           0.50000    
 The resulting pinball region                 0.71293E-07
 Initial penetration/gap is excluded.
 Bonded contact (always) is defined.

 *** NOTE ***                            CP =      10.562   TIME= 08:17:54
 Max.  Initial penetration 0 was detected between contact element 9070   
 and target element 9187.                                                
 ****************************************
  

 *** NOTE ***                            CP =      10.562   TIME= 08:17:54
 Symmetric Deformable- deformable contact pair identified by real        
 constant set 26 and contact element type 25 has been set up.  The       
 companion pair has real constant set ID 25.  Both pairs should have     
 the same behavior.                                                      
 ANSYS will keep the current pair and deactivate its companion pair,     
 resulting in asymmetric contact.                                        
 Small sliding logic is assumed
 Contact algorithm: Augmented Lagrange method
 Contact detection at: Gauss integration point
 Contact stiffness factor FKN                  10.000    
 The resulting initial contact stiffness      0.20339E+21
 Default penetration tolerance factor FTOLN   0.10000    
 The resulting penetration tolerance          0.27858E-08
 Default opening contact stiffness OPSF will be used.
 Default tangent stiffness factor FKT          1.0000    
 Default elastic slip factor SLTOL            0.50000E-02
 The resulting elastic slip tolerance         0.43414E-09
 Update contact stiffness at each iteration
 Default Max. friction stress TAUMAX          0.10000E+21
 Average contact surface length               0.86829E-07
 Average contact pair depth                   0.27858E-07
 Default pinball region factor PINB           0.50000    
 The resulting pinball region                 0.13929E-07
 Initial penetration/gap is excluded.
 Bonded contact (always) is defined.

 *** NOTE ***                            CP =      10.562   TIME= 08:17:54
 Max.  Initial penetration 0 was detected between contact element 9110   
 and target element 9050.                                                
 ****************************************
  

 *** DATA TRANSFER INFORMATION ON SOURCE SIDE ***
     SOLVER . . . . . . . . . . . . . . . . . .EM Transient (Solution 2)
      REGION. . . . . . . . . . . . . . . . . .Fluid Solid Interface (FSIN_1)
      VARIABLE. . . . . . . . . . . . . . . . .Incremental Displacement (INCD)

 *** DATA TRANSFER INFORMATION ON TARGET SIDE ***
     SOLVER . . . . . . . . . . . . . . . . . .EM Transient (Solution 2)
      REGION. . . . . . . . . . . . . . . . . .Fluid Solid Interface (FSIN_1)
      VARIABLE. . . . . . . . . . . . . . . . .Force (FORC)

 *** LIST MESH INFORMATION ON FSIN/FVIN INTERFACES
     REGION. . . . . . . . . . . . . . . . . .       1
      NUMBER OF ELEMENTS . . . . . . . . . . .    3160
      NUMBER OF NODES. . . . . . . . . . . . .    7118
      NUMBER OF CORNER NODES . . . . . . . . .    1942

 *** ANSYS - ENGINEERING ANALYSIS SYSTEM  RELEASE 2020 R1          20.1     ***
 DISTRIBUTED ANSYS Mechanical Enterprise                       

 20120530  VERSION=WINDOWS x64   08:18:08  APR 07, 2020 CP=     10.781

                                                                               



                   C O U P L I N G   S T E P   O P T I O N S

   STEP NUMBER . . . . . . . . . . . . . . . . . .     1
   COUPLING ITERATION. . . . . . . . . . . . . . .     1
   TIME AT END OF THIS STEP. . . . . . . . . . . . 0.10000E-08
   NUMBER OF SUBSTEPS. . . . . . . . . . . . . . .     1
   MAXIMUM NUMBER OF EQUILIBRIUM ITERATIONS. . . .    25
   STEP CHANGE BOUNDARY CONDITIONS . . . . . . . .   YES
   TRANSIENT (INERTIA) EFFECTS
      STRUCTURAL DOFS. . . . . . . . . . . . . . .    ON
      ELECTRIC DOFS. . . . . . . . . . . . . . . .    ON
   TRANSIENT INTEGRATION PARAMETERS
      GAMMA. . . . . . . . . . . . . . . . . . . .  0.0000    
      ALPHA. . . . . . . . . . . . . . . . . . . . 0.25000    
      DELTA. . . . . . . . . . . . . . . . . . . . 0.50000    
      USING HHT TIME INTEGRATION
      ALPHAF . . . . . . . . . . . . . . . . . . .  0.0000    
      ALPHAM . . . . . . . . . . . . . . . . . . .  0.0000    
      THETA. . . . . . . . . . . . . . . . . . . . 0.50000    
      OSCILLATION LIMIT CRITERION. . . . . . . . . 0.50000    
      TOLERANCE. . . . . . . . . . . . . . . . . . 0.20000    
   TERMINATE ANALYSIS IF NOT CONVERGED . . . . . .YES (EXIT)  
   CONVERGENCE CONTROLS. . . . . . . . . . . . . .USE DEFAULTS
   PRINT OUTPUT CONTROLS . . . . . . . . . . . . .NO PRINTOUT
   DATABASE OUTPUT CONTROLS
      ITEM     FREQUENCY   COMPONENT
       ALL       NONE               
      NSOL        ALL               
      RSOL        ALL               
      EANG        ALL               
      ETMP        ALL               
      VENG        ALL               
      STRS        ALL               
      EPEL        ALL               
      EPPL        ALL               
      CONT        ALL               
      V           ALL               
      A           ALL               


 *** FORCE SUM ACROSS TARGET INTERFACE . . . . .Fluid Solid Interface (FSIN_1)
     RECEIVING FORCE FX SUM =   0.0000    
     RECEIVING FORCE FY SUM =   0.0000    
     RECEIVING FORCE FZ SUM =   0.0000    

  
 *************************************************
  SUMMARY FOR CONTACT PAIR IDENTIFIED BY REAL CONSTANT SET          13

 *** NOTE ***                            CP =      12.188   TIME= 08:18:10
 Contact pair is inactive.                                               
  
 *************************************************
  SUMMARY FOR CONTACT PAIR IDENTIFIED BY REAL CONSTANT SET          14
 Max.  Penetration of 0 has been detected between contact element 8146   
 and target element 8128.                                                
 For total 42 contact elements, there are 42 elements are in contact.    
 There are 42 elements are in sticking.                                  
 Contacting area 1.476E-13.                                              
 Max.  Pinball distance 1.440064172E-08.                                 
 One of the contact searching regions contains at least 8 target         
 elements.                                                               
 Max.  Pressure/force 9.358784005E-04.                                   
 Max.  Normal stiffness 1.648191293E+19.                                 
 Min.  Normal stiffness 1.648191293E+19.                                 
 Max.  Tangential stiffness 1.23614347E+18.                              
 Min.  Tangential stiffness 1.23614347E+18.                              
 *************************************************
  
 *************************************************
  SUMMARY FOR CONTACT PAIR IDENTIFIED BY REAL CONSTANT SET          17

 *** NOTE ***                            CP =      12.188   TIME= 08:18:10
 Contact pair is inactive.                                               
  
 *************************************************
  SUMMARY FOR CONTACT PAIR IDENTIFIED BY REAL CONSTANT SET          18
 Max.  Penetration of 0 has been detected between contact element 8384   
 and target element 8364.                                                
 For total 42 contact elements, there are 42 elements are in contact.    
 There are 42 elements are in sticking.                                  
 Contacting area 1.476E-13.                                              
 Max.  Pinball distance 1.440064172E-08.                                 
 One of the contact searching regions contains at least 6 target         
 elements.                                                               
 Max.  Pressure/force 1.039222007E-03.                                   
 Max.  Normal stiffness 1.830191468E+19.                                 
 Min.  Normal stiffness 1.830191468E+19.                                 
 Max.  Tangential stiffness 1.372643601E+18.                             
 Min.  Tangential stiffness 1.372643601E+18.                             
 *************************************************
  
 *************************************************
  SUMMARY FOR CONTACT PAIR IDENTIFIED BY REAL CONSTANT SET          21

 *** NOTE ***                            CP =      12.188   TIME= 08:18:10
 Contact pair is inactive.                                               
  
 *************************************************
  SUMMARY FOR CONTACT PAIR IDENTIFIED BY REAL CONSTANT SET          22
 Max.  Penetration of 0 has been detected between contact element 8732   
 and target element 8689.                                                
 For total 48 contact elements, there are 48 elements are in contact.    
 There are 48 elements are in sticking.                                  
 Contacting area 1.51568E-13.                                            
 Max.  Pinball distance 1.458236077E-08.                                 
 One of the contact searching regions contains at least 11 target        
 elements.                                                               
 Max.  Pressure/force 1.894484228E-03.                                   
 Max.  Normal stiffness 2.306227816E+19.                                 
 Min.  Normal stiffness 2.306227816E+19.                                 
 Max.  Tangential stiffness 1.729670862E+18.                             
 Min.  Tangential stiffness 1.729670862E+18.                             
 *************************************************
  
 *************************************************
  SUMMARY FOR CONTACT PAIR IDENTIFIED BY REAL CONSTANT SET          25

 *** NOTE ***                            CP =      12.188   TIME= 08:18:10
 Contact pair is inactive.                                               
  
 *************************************************
  SUMMARY FOR CONTACT PAIR IDENTIFIED BY REAL CONSTANT SET          26
 Max.  Penetration of 0 has been detected between contact element 9110   
 and target element 9050.                                                
 For total 52 contact elements, there are 52 elements are in contact.    
 There are 52 elements are in sticking.                                  
 Contacting area 1.51568E-13.                                            
 Max.  Pinball distance 1.392904961E-08.                                 
 One of the contact searching regions contains at least 13 target        
 elements.                                                               
 Max.  Pressure/force 1.56849175E-03.                                    
 Max.  Normal stiffness 2.033851241E+19.                                 
 Min.  Normal stiffness 2.033851241E+19.                                 
 Max.  Tangential stiffness 1.525388431E+18.                             
 Min.  Tangential stiffness 1.525388431E+18.                             
 *************************************************


                         ***********  PRECISE MASS SUMMARY  ***********

   TOTAL RIGID BODY MASS MATRIX ABOUT ORIGIN
               Translational mass               |   Coupled translational/rotational mass
        0.81220E-13    0.0000        0.0000     |     0.0000      -0.93885E-20  -0.67708E-35
         0.0000       0.81220E-13    0.0000     |    0.93885E-20    0.0000      -0.52813E-26
         0.0000        0.0000       0.81220E-13 |    0.11661E-34   0.52813E-26    0.0000    
     ------------------------------------------ | ------------------------------------------
                                                |         Rotational mass (inertia)
                                                |    0.22693E-24   0.89571E-32   0.52813E-33
                                                |    0.89571E-32   0.22693E-24   0.18654E-39
                                                |    0.52813E-33   0.18654E-39   0.45034E-24

   TOTAL MASS = 0.81220E-13
     The mass principal axes coincide with the global Cartesian axes

   CENTER OF MASS (X,Y,Z)=  -0.65025E-13   0.83365E-22  -0.11559E-06

   TOTAL INERTIA ABOUT CENTER OF MASS
        0.22585E-24   0.89571E-32   0.11386E-32
        0.89571E-32   0.22585E-24   0.18576E-39
        0.11386E-32   0.18576E-39   0.45034E-24
     The inertia principal axes coincide with the global Cartesian axes


  *** MASS SUMMARY BY ELEMENT TYPE ***

  TYPE      MASS
     1  0.109072E-13
     2  0.103294E-15
     3  0.103294E-15
     4  0.103294E-15
     5  0.103294E-15
     6  0.104825E-15
     7  0.104825E-15
     8  0.104825E-15
     9  0.104825E-15
    10  0.694800E-13

 Range of element maximum matrix coefficients in global coordinates
 Maximum = 1125666.04 at element 3363.                                   
 Minimum = 4818.51715 at element 8970.                                   

   *** ELEMENT MATRIX FORMULATION TIMES
     TYPE    NUMBER   ENAME      TOTAL CP  AVE CP

        1      3362  SOLID187      0.625   0.000186
        2        51  SOLID186      0.000   0.000000
        3        51  SOLID186      0.047   0.000919
        4        51  SOLID186      0.031   0.000613
[...]
    >>> SOLUTION CONVERGED AFTER EQUILIBRIUM ITERATION   1
 *** LOAD STEP     5   SUBSTEP     1  COMPLETED.    CUM ITER =    109
 *** TIME =  0.500000E-08     TIME INC =  0.100000E-08

 *** AVERAGE DISP INCREMENT ACROSS SOURCE INTERFACE. Fluid Solid Interface (FSIN_1)
     AVERAGE SENDING DISPLACEMENT INCREMENT DX = -0.14004E-12
     AVERAGE SENDING DISPLACEMENT INCREMENT DY =  0.42442E-13
     AVERAGE SENDING DISPLACEMENT INCREMENT DZ = -0.74406E-10

   COUPLING ITERATION. . . . . . . . . . . . . . .    10

 *** FORCE SUM ACROSS TARGET INTERFACE . . . . .Fluid Solid Interface (FSIN_1)
     RECEIVING FORCE FX SUM = -0.51685E-09
     RECEIVING FORCE FY SUM =  0.30349E-09
     RECEIVING FORCE FZ SUM = -0.10604E-07

     FORCE CONVERGENCE VALUE  =  0.8330E-07  CRITERION=  0.1000E-02
     CURRENT CONVERGENCE VALUE=   0.000      CRITERION=  0.5829E-12
    EQUIL ITER   1 COMPLETED.  NEW TRIANG MATRIX.  MAX DOF INC= -0.1057E-09
     FORCE CONVERGENCE VALUE  =  0.8732E-10  CRITERION=  0.1000E-02 <<< CONVERGED
     CURRENT CONVERGENCE VALUE=   0.000      CRITERION=  0.7975E-12 <<< CONVERGED
    >>> SOLUTION CONVERGED AFTER EQUILIBRIUM ITERATION   1
 *** LOAD STEP     5   SUBSTEP     1  COMPLETED.    CUM ITER =    110
 *** TIME =  0.500000E-08     TIME INC =  0.100000E-08

 *** AVERAGE DISP INCREMENT ACROSS SOURCE INTERFACE. Fluid Solid Interface (FSIN_1)
     AVERAGE SENDING DISPLACEMENT INCREMENT DX = -0.14006E-12
     AVERAGE SENDING DISPLACEMENT INCREMENT DY =  0.42464E-13
     AVERAGE SENDING DISPLACEMENT INCREMENT DZ = -0.74406E-10

   COUPLING ITERATION. . . . . . . . . . . . . . .    11

 *** FORCE SUM ACROSS TARGET INTERFACE . . . . .Fluid Solid Interface (FSIN_1)
     RECEIVING FORCE FX SUM = -0.51576E-09
     RECEIVING FORCE FY SUM =  0.30087E-09
     RECEIVING FORCE FZ SUM = -0.10606E-07

     FORCE CONVERGENCE VALUE  =  0.8330E-07  CRITERION=  0.1000E-02
     CURRENT CONVERGENCE VALUE=   0.000      CRITERION=  0.5829E-12
    EQUIL ITER   1 COMPLETED.  NEW TRIANG MATRIX.  MAX DOF INC= -0.1057E-09
     FORCE CONVERGENCE VALUE  =  0.8732E-10  CRITERION=  0.1000E-02 <<< CONVERGED
     CURRENT CONVERGENCE VALUE=   0.000      CRITERION=  0.7975E-12 <<< CONVERGED
    >>> SOLUTION CONVERGED AFTER EQUILIBRIUM ITERATION   1
 *** LOAD STEP     5   SUBSTEP     1  COMPLETED.    CUM ITER =    111
 *** TIME =  0.500000E-08     TIME INC =  0.100000E-08

 *** AVERAGE DISP INCREMENT ACROSS SOURCE INTERFACE. Fluid Solid Interface (FSIN_1)
     AVERAGE SENDING DISPLACEMENT INCREMENT DX = -0.14005E-12
     AVERAGE SENDING DISPLACEMENT INCREMENT DY =  0.42447E-13
     AVERAGE SENDING DISPLACEMENT INCREMENT DZ = -0.74406E-10

   COUPLING ITERATION. . . . . . . . . . . . . . .    12

 *** FORCE SUM ACROSS TARGET INTERFACE . . . . .Fluid Solid Interface (FSIN_1)
     RECEIVING FORCE FX SUM = -0.51178E-09
     RECEIVING FORCE FY SUM =  0.30118E-09
     RECEIVING FORCE FZ SUM = -0.10594E-07

     FORCE CONVERGENCE VALUE  =  0.8330E-07  CRITERION=  0.1000E-02
     CURRENT CONVERGENCE VALUE=   0.000      CRITERION=  0.5829E-12
    EQUIL ITER   1 COMPLETED.  NEW TRIANG MATRIX.  MAX DOF INC= -0.1057E-09
     FORCE CONVERGENCE VALUE  =  0.8732E-10  CRITERION=  0.1000E-02 <<< CONVERGED
     CURRENT CONVERGENCE VALUE=   0.000      CRITERION=  0.7975E-12 <<< CONVERGED
    >>> SOLUTION CONVERGED AFTER EQUILIBRIUM ITERATION   1
 *** LOAD STEP     5   SUBSTEP     1  COMPLETED.    CUM ITER =    112
 *** TIME =  0.500000E-08     TIME INC =  0.100000E-08

 *** AVERAGE DISP INCREMENT ACROSS SOURCE INTERFACE. Fluid Solid Interface (FSIN_1)
     AVERAGE SENDING DISPLACEMENT INCREMENT DX = -0.14003E-12
     AVERAGE SENDING DISPLACEMENT INCREMENT DY =  0.42455E-13
     AVERAGE SENDING DISPLACEMENT INCREMENT DZ = -0.74406E-10

   COUPLING ITERATION. . . . . . . . . . . . . . .    13

 *** FORCE SUM ACROSS TARGET INTERFACE . . . . .Fluid Solid Interface (FSIN_1)
     RECEIVING FORCE FX SUM = -0.51591E-09
     RECEIVING FORCE FY SUM =  0.30301E-09
     RECEIVING FORCE FZ SUM = -0.10601E-07

     FORCE CONVERGENCE VALUE  =  0.8330E-07  CRITERION=  0.1000E-02
     CURRENT CONVERGENCE VALUE=   0.000      CRITERION=  0.5829E-12
    EQUIL ITER   1 COMPLETED.  NEW TRIANG MATRIX.  MAX DOF INC= -0.1057E-09
     FORCE CONVERGENCE VALUE  =  0.8732E-10  CRITERION=  0.1000E-02 <<< CONVERGED
     CURRENT CONVERGENCE VALUE=   0.000      CRITERION=  0.7975E-12 <<< CONVERGED
    >>> SOLUTION CONVERGED AFTER EQUILIBRIUM ITERATION   1
 *** LOAD STEP     5   SUBSTEP     1  COMPLETED.    CUM ITER =    113
 *** TIME =  0.500000E-08     TIME INC =  0.100000E-08

 *** AVERAGE DISP INCREMENT ACROSS SOURCE INTERFACE. Fluid Solid Interface (FSIN_1)
     AVERAGE SENDING DISPLACEMENT INCREMENT DX = -0.14005E-12
     AVERAGE SENDING DISPLACEMENT INCREMENT DY =  0.42459E-13
     AVERAGE SENDING DISPLACEMENT INCREMENT DZ = -0.74406E-10

   COUPLING ITERATION. . . . . . . . . . . . . . .    14

 *** FORCE SUM ACROSS TARGET INTERFACE . . . . .Fluid Solid Interface (FSIN_1)
     RECEIVING FORCE FX SUM = -0.51506E-09
     RECEIVING FORCE FY SUM =  0.30335E-09
     RECEIVING FORCE FZ SUM = -0.10595E-07

     FORCE CONVERGENCE VALUE  =  0.8330E-07  CRITERION=  0.1000E-02
     CURRENT CONVERGENCE VALUE=   0.000      CRITERION=  0.5829E-12
    EQUIL ITER   1 COMPLETED.  NEW TRIANG MATRIX.  MAX DOF INC= -0.1057E-09
     FORCE CONVERGENCE VALUE  =  0.8732E-10  CRITERION=  0.1000E-02 <<< CONVERGED
     CURRENT CONVERGENCE VALUE=   0.000      CRITERION=  0.7975E-12 <<< CONVERGED
    >>> SOLUTION CONVERGED AFTER EQUILIBRIUM ITERATION   1
 *** LOAD STEP     5   SUBSTEP     1  COMPLETED.    CUM ITER =    114
 *** TIME =  0.500000E-08     TIME INC =  0.100000E-08

 *** AVERAGE DISP INCREMENT ACROSS SOURCE INTERFACE. Fluid Solid Interface (FSIN_1)
     AVERAGE SENDING DISPLACEMENT INCREMENT DX = -0.14005E-12
     AVERAGE SENDING DISPLACEMENT INCREMENT DY =  0.42466E-13
     AVERAGE SENDING DISPLACEMENT INCREMENT DZ = -0.74406E-10

   COUPLING ITERATION. . . . . . . . . . . . . . .    15

 *** FORCE SUM ACROSS TARGET INTERFACE . . . . .Fluid Solid Interface (FSIN_1)
     RECEIVING FORCE FX SUM = -0.51636E-09
     RECEIVING FORCE FY SUM =  0.30442E-09
     RECEIVING FORCE FZ SUM = -0.10604E-07

     FORCE CONVERGENCE VALUE  =  0.8330E-07  CRITERION=  0.1000E-02
     CURRENT CONVERGENCE VALUE=   0.000      CRITERION=  0.5829E-12
    EQUIL ITER   1 COMPLETED.  NEW TRIANG MATRIX.  MAX DOF INC= -0.1057E-09
     FORCE CONVERGENCE VALUE  =  0.8732E-10  CRITERION=  0.1000E-02 <<< CONVERGED
     CURRENT CONVERGENCE VALUE=   0.000      CRITERION=  0.7975E-12 <<< CONVERGED
    >>> SOLUTION CONVERGED AFTER EQUILIBRIUM ITERATION   1
 *** LOAD STEP     5   SUBSTEP     1  COMPLETED.    CUM ITER =    115
 *** TIME =  0.500000E-08     TIME INC =  0.100000E-08

 *** AVERAGE DISP INCREMENT ACROSS SOURCE INTERFACE. Fluid Solid Interface (FSIN_1)
     AVERAGE SENDING DISPLACEMENT INCREMENT DX = -0.14006E-12
     AVERAGE SENDING DISPLACEMENT INCREMENT DY =  0.42473E-13
     AVERAGE SENDING DISPLACEMENT INCREMENT DZ = -0.74406E-10

   COUPLING ITERATION. . . . . . . . . . . . . . .    16

 *** FORCE SUM ACROSS TARGET INTERFACE . . . . .Fluid Solid Interface (FSIN_1)
     RECEIVING FORCE FX SUM = -0.51296E-09
     RECEIVING FORCE FY SUM =  0.29922E-09
     RECEIVING FORCE FZ SUM = -0.10598E-07

     FORCE CONVERGENCE VALUE  =  0.8330E-07  CRITERION=  0.1000E-02
     CURRENT CONVERGENCE VALUE=   0.000      CRITERION=  0.5829E-12
    EQUIL ITER   1 COMPLETED.  NEW TRIANG MATRIX.  MAX DOF INC= -0.1057E-09
     FORCE CONVERGENCE VALUE  =  0.8732E-10  CRITERION=  0.1000E-02 <<< CONVERGED
     CURRENT CONVERGENCE VALUE=   0.000      CRITERION=  0.7975E-12 <<< CONVERGED
    >>> SOLUTION CONVERGED AFTER EQUILIBRIUM ITERATION   1
 *** LOAD STEP     5   SUBSTEP     1  COMPLETED.    CUM ITER =    116
 *** TIME =  0.500000E-08     TIME INC =  0.100000E-08

 *** AVERAGE DISP INCREMENT ACROSS SOURCE INTERFACE. Fluid Solid Interface (FSIN_1)
     AVERAGE SENDING DISPLACEMENT INCREMENT DX = -0.14003E-12
     AVERAGE SENDING DISPLACEMENT INCREMENT DY =  0.42439E-13
     AVERAGE SENDING DISPLACEMENT INCREMENT DZ = -0.74406E-10

   COUPLING ITERATION. . . . . . . . . . . . . . .    17

 *** FORCE SUM ACROSS TARGET INTERFACE . . . . .Fluid Solid Interface (FSIN_1)
     RECEIVING FORCE FX SUM = -0.51360E-09
     RECEIVING FORCE FY SUM =  0.30208E-09
     RECEIVING FORCE FZ SUM = -0.10604E-07

     FORCE CONVERGENCE VALUE  =  0.8330E-07  CRITERION=  0.1000E-02
     CURRENT CONVERGENCE VALUE=   0.000      CRITERION=  0.5829E-12
    EQUIL ITER   1 COMPLETED.  NEW TRIANG MATRIX.  MAX DOF INC= -0.1057E-09
     FORCE CONVERGENCE VALUE  =  0.8732E-10  CRITERION=  0.1000E-02 <<< CONVERGED
     CURRENT CONVERGENCE VALUE=   0.000      CRITERION=  0.7975E-12 <<< CONVERGED
    >>> SOLUTION CONVERGED AFTER EQUILIBRIUM ITERATION   1
 *** LOAD STEP     5   SUBSTEP     1  COMPLETED.    CUM ITER =    117
 *** TIME =  0.500000E-08     TIME INC =  0.100000E-08

 *** AVERAGE DISP INCREMENT ACROSS SOURCE INTERFACE. Fluid Solid Interface (FSIN_1)
     AVERAGE SENDING DISPLACEMENT INCREMENT DX = -0.14004E-12
     AVERAGE SENDING DISPLACEMENT INCREMENT DY =  0.42461E-13
     AVERAGE SENDING DISPLACEMENT INCREMENT DZ = -0.74406E-10

   COUPLING ITERATION. . . . . . . . . . . . . . .    18

 *** FORCE SUM ACROSS TARGET INTERFACE . . . . .Fluid Solid Interface (FSIN_1)
     RECEIVING FORCE FX SUM = -0.51205E-09
     RECEIVING FORCE FY SUM =  0.29672E-09
     RECEIVING FORCE FZ SUM = -0.10589E-07

     FORCE CONVERGENCE VALUE  =  0.8330E-07  CRITERION=  0.1000E-02
     CURRENT CONVERGENCE VALUE=   0.000      CRITERION=  0.5829E-12
    EQUIL ITER   1 COMPLETED.  NEW TRIANG MATRIX.  MAX DOF INC= -0.1057E-09
     FORCE CONVERGENCE VALUE  =  0.8732E-10  CRITERION=  0.1000E-02 <<< CONVERGED
     CURRENT CONVERGENCE VALUE=   0.000      CRITERION=  0.7975E-12 <<< CONVERGED
    >>> SOLUTION CONVERGED AFTER EQUILIBRIUM ITERATION   1
 *** LOAD STEP     5   SUBSTEP     1  COMPLETED.    CUM ITER =    118
 *** TIME =  0.500000E-08     TIME INC =  0.100000E-08

 *** AVERAGE DISP INCREMENT ACROSS SOURCE INTERFACE. Fluid Solid Interface (FSIN_1)
     AVERAGE SENDING DISPLACEMENT INCREMENT DX = -0.14002E-12
     AVERAGE SENDING DISPLACEMENT INCREMENT DY =  0.42427E-13
     AVERAGE SENDING DISPLACEMENT INCREMENT DZ = -0.74407E-10

   COUPLING ITERATION. . . . . . . . . . . . . . .    19

 *** FORCE SUM ACROSS TARGET INTERFACE . . . . .Fluid Solid Interface (FSIN_1)
     RECEIVING FORCE FX SUM = -0.51607E-09
     RECEIVING FORCE FY SUM =  0.30201E-09
     RECEIVING FORCE FZ SUM = -0.10604E-07

     FORCE CONVERGENCE VALUE  =  0.8330E-07  CRITERION=  0.1000E-02
     CURRENT CONVERGENCE VALUE=   0.000      CRITERION=  0.5829E-12
    EQUIL ITER   1 COMPLETED.  NEW TRIANG MATRIX.  MAX DOF INC= -0.1057E-09
     FORCE CONVERGENCE VALUE  =  0.8732E-10  CRITERION=  0.1000E-02 <<< CONVERGED
     CURRENT CONVERGENCE VALUE=   0.000      CRITERION=  0.7975E-12 <<< CONVERGED
    >>> SOLUTION CONVERGED AFTER EQUILIBRIUM ITERATION   1
 *** LOAD STEP     5   SUBSTEP     1  COMPLETED.    CUM ITER =    119
 *** TIME =  0.500000E-08     TIME INC =  0.100000E-08

 *** AVERAGE DISP INCREMENT ACROSS SOURCE INTERFACE. Fluid Solid Interface (FSIN_1)
     AVERAGE SENDING DISPLACEMENT INCREMENT DX = -0.14006E-12
     AVERAGE SENDING DISPLACEMENT INCREMENT DY =  0.42460E-13
     AVERAGE SENDING DISPLACEMENT INCREMENT DZ = -0.74406E-10

   COUPLING ITERATION. . . . . . . . . . . . . . .    20

 *** FORCE SUM ACROSS TARGET INTERFACE . . . . .Fluid Solid Interface (FSIN_1)
     RECEIVING FORCE FX SUM = -0.51097E-09
     RECEIVING FORCE FY SUM =  0.29884E-09
     RECEIVING FORCE FZ SUM = -0.10594E-07

     FORCE CONVERGENCE VALUE  =  0.8330E-07  CRITERION=  0.1000E-02
     CURRENT CONVERGENCE VALUE=   0.000      CRITERION=  0.5829E-12
    EQUIL ITER   1 COMPLETED.  NEW TRIANG MATRIX.  MAX DOF INC= -0.1057E-09
     FORCE CONVERGENCE VALUE  =  0.8732E-10  CRITERION=  0.1000E-02 <<< CONVERGED
     CURRENT CONVERGENCE VALUE=   0.000      CRITERION=  0.7975E-12 <<< CONVERGED
    >>> SOLUTION CONVERGED AFTER EQUILIBRIUM ITERATION   1
 *** LOAD STEP     5   SUBSTEP     1  COMPLETED.    CUM ITER =    120
 *** TIME =  0.500000E-08     TIME INC =  0.100000E-08

 *** AVERAGE DISP INCREMENT ACROSS SOURCE INTERFACE. Fluid Solid Interface (FSIN_1)
     AVERAGE SENDING DISPLACEMENT INCREMENT DX = -0.14002E-12
     AVERAGE SENDING DISPLACEMENT INCREMENT DY =  0.42439E-13
     AVERAGE SENDING DISPLACEMENT INCREMENT DZ = -0.74406E-10

 >>> COUPLING STEP     5 COMPLETED AFTER COUPLING ITERATION    20
 *************** Write FE CONNECTORS *********

 WRITE OUT CONSTRAINT EQUATIONS TO FILE= file.ce                                                                                                                                                                                                                                                             
 ****************************************************
 *************** FINISHED SOLVE FOR LS 1 *************

 *GET  _WALLASOL  FROM  ACTI  ITEM=TIME WALL  VALUE=  9.65138889    

 PRINTOUT RESUMED BY /GOP

 FINISH SOLUTION PROCESSING


 ***** ROUTINE COMPLETED *****  CP =       240.469



 *** ANSYS - ENGINEERING ANALYSIS SYSTEM  RELEASE 2020 R1          20.1     ***
 DISTRIBUTED ANSYS Mechanical Enterprise                       

 20120530  VERSION=WINDOWS x64   09:39:06  APR 07, 2020 CP=    240.516

                                                                               



          ***** ANSYS RESULTS INTERPRETATION (POST1) *****

 *** NOTE ***                            CP =     240.516   TIME= 09:39:06
 The model contains an element type ( TRANS126 ) that operates entirely  
 in the nodal coordinate system.  Viewing nodal displacements or forces  
 in other than the nodal coordinate system may be invalid.  See the      
 elements manual description for more information.                       

 *** NOTE ***                            CP =     240.516   TIME= 09:39:06
 Reading results into the database (SET command) will update the current 
 displacement and force boundary conditions in the database with the     
 values from the results file for that load set.  Note that any          
 subsequent solutions will use these values unless action is taken to    
 either SAVE the current values or not overwrite them (/EXIT,NOSAVE).    

 Set Encoding of XML File to:ISO-8859-1

 Set Output of XML File to:
     PARM,     ,     ,     ,     ,     ,     ,     ,     ,     ,     ,     ,
         ,     ,     ,     ,     ,     ,     ,

 DATABASE WRITTEN ON FILE  parm.xml                                                                                                                                                                                                                                                            

 EXIT THE ANSYS POST1 DATABASE PROCESSOR


 ***** ROUTINE COMPLETED *****  CP =       240.641



 PRINTOUT RESUMED BY /GOP

 *GET  _WALLDONE  FROM  ACTI  ITEM=TIME WALL  VALUE=  9.65166667    

 PARAMETER _PREPTIME =     12.00000000    

 PARAMETER _SOLVTIME =     4873.000000    

 PARAMETER _POSTTIME =     1.000000000    

 PARAMETER _TOTALTIM =     4886.000000    

 *GET  _DLBRATIO  FROM  ACTI  ITEM=SOLU DLBR  VALUE=  1.22079117    

 *GET  _COMBTIME  FROM  ACTI  ITEM=SOLU COMB  VALUE= 0.779350700    
 --- Number of total nodes = 12456
 --- Number of total elements = 7109
 --- Element load balance ratio = 1.22079117
 --- Time to combine distributed files = 0.7793507

 EXIT ANSYS WITHOUT SAVING DATABASE


 NUMBER OF WARNING MESSAGES ENCOUNTERED=          6
 NUMBER OF ERROR   MESSAGES ENCOUNTERED=          0

+--------- D I S T R I B U T E D   A N S Y S   S T A T I S T I C S ------------+

Release: 2020 R1            Build: 20.1       Update: UP20191203   Platform: WINDOWS x64 
Date Run: 04/07/2020   Time: 09:39     Process ID: 10172
Operating System: Windows 10  (Build: 18363)

Processor Model: Intel(R) Core(TM) i5-6360U CPU @ 2.00GHz

Compiler: Intel(R) FORTRAN Compiler Version 19.0.0  (Build: 20190206)
          Intel(R) C/C++ Compiler Version 19.0.0  (Build: 20190206)
          Intel(R) Math Kernel Library Version 2019.0.3 Product Build 20190125

Number of machines requested            :    1
Total number of cores available         :    2
Number of physical cores available      :    2
Number of processes requested           :    2
Number of threads per process requested :    1
Total number of cores requested         :    2 (Distributed Memory Parallel)               
MPI Type: INTELMPI
MPI Version: Intel(R) MPI Library 2018 Update 3 for Windows* OS


GPU Acceleration: Not Requested

Job Name: file0
Input File: dummy.dat

  Core                Machine Name   Working Directory
 -----------------------------------------------------
     0             DESKTOP-H2RNGL6   C:\Users\Akash Levy\Documents\NEM-Relay-CAD\ansys\_ProjectScratch\ScrBE13
     1             DESKTOP-H2RNGL6   C:\Users\Akash Levy\Documents\NEM-Relay-CAD\ansys\_ProjectScratch\ScrBE13
 
Latency time from master to core     1 =  273.969 microseconds
 
Communication speed from master to core     1 =   590.54 MB/sec

Total CPU time for main thread                    :      237.3 seconds
Total CPU time summed for all threads             :      240.8 seconds

Elapsed time spent obtaining a license            :        1.7 seconds
Elapsed time spent pre-processing model (/PREP7)  :       12.0 seconds
Elapsed time spent solution - preprocessing       :        1.4 seconds
Elapsed time spent computing solution             :     4870.8 seconds
Elapsed time spent solution - postprocessing      :        0.8 seconds
Elapsed time spent post-processing model (/POST1) :        0.3 seconds
 
Equation solver used                              :            Sparse (unsymmetric)
Equation solver computational rate                :       10.3 Gflops
Equation solver effective I/O rate                :        2.6 GB/sec

Maximum total memory used                         :      349.0 MB
Maximum total memory allocated                    :     3136.0 MB
Total physical memory available                   :          4 GB

Total amount of I/O written to disk               :        6.7 GB
Total amount of I/O read from disk                :       16.1 GB

+------ E N D   D I S T R I B U T E D   A N S Y S   S T A T I S T I C S -------+


 *---------------------------------------------------------------------------*
 |                                                                           |
 |                       DISTRIBUTED ANSYS RUN COMPLETED                     |
 |                                                                           |
 |---------------------------------------------------------------------------|
 |                                                                           |
 | Ansys 2020 R1               Build 20.1         UP20191203     WINDOWS x64 |
 |                                                                           |
 |---------------------------------------------------------------------------|
 |                                                                           |
 | Database Requested(-db)  1024 MB    Scratch Memory Requested      1024 MB |
 | Maximum Database Used      13 MB    Maximum Scratch Memory Used    165 MB |
 |                                                                           |
 |---------------------------------------------------------------------------|
 |                                                                           |
 |        CP Time      (sec) =        240.844       Time  =  09:39:08        |
 |        Elapsed Time (sec) =       4903.000       Date  =  04/07/2020      |
 |                                                                           |
 *---------------------------------------------------------------------------*
