
 ANSYS Mechanical Enterprise                       


 *------------------------------------------------------------------*
 |                                                                  |
 |   W E L C O M E   T O   T H E   A N S Y S (R)  P R O G R A M     |
 |                                                                  |
 *------------------------------------------------------------------*




 ***************************************************************
 *            ANSYS 2020 R1          LEGAL NOTICES             *
 ***************************************************************
 *                                                             *
 * Copyright 1971-2020 ANSYS, Inc.  All rights reserved.       *
 * Unauthorized use, distribution or duplication is            *
 * prohibited.                                                 *
 *                                                             *
 * Ansys is a registered trademark of ANSYS, Inc. or its       *
 * subsidiaries in the United States or other countries.       *
 * See the ANSYS, Inc. online documentation or the ANSYS, Inc. *
 * documentation CD or online help for the complete Legal      *
 * Notice.                                                     *
 *                                                             *
 ***************************************************************
 *                                                             *
 * THIS ANSYS SOFTWARE PRODUCT AND PROGRAM DOCUMENTATION       *
 * INCLUDE TRADE SECRETS AND CONFIDENTIAL AND PROPRIETARY      *
 * PRODUCTS OF ANSYS, INC., ITS SUBSIDIARIES, OR LICENSORS.    *
 * The software products and documentation are furnished by    *
 * ANSYS, Inc. or its subsidiaries under a software license    *
 * agreement that contains provisions concerning               *
 * non-disclosure, copying, length and nature of use,          *
 * compliance with exporting laws, warranties, disclaimers,    *
 * limitations of liability, and remedies, and other           *
 * provisions.  The software products and documentation may be *
 * used, disclosed, transferred, or copied only in accordance  *
 * with the terms and conditions of that software license      *
 * agreement.                                                  *
 *                                                             *
 * ANSYS, Inc. is a UL registered                              *
 * ISO 9001:2015 company.                                      *
 *                                                             *
 ***************************************************************
 *                                                             *
 * This product is subject to U.S. laws governing export and   *
 * re-export.                                                  *
 *                                                             *
 * For U.S. Government users, except as specifically granted   *
 * by the ANSYS, Inc. software license agreement, the use,     *
 * duplication, or disclosure by the United States Government  *
 * is subject to restrictions stated in the ANSYS, Inc.        *
 * software license agreement and FAR 12.212 (for non-DOD      *
 * licenses).                                                  *
 *                                                             *
 ***************************************************************

 2020 R1 
     
 Point Releases and Patches installed:   
     
 ANSYS, Inc. Products 2020 R1
 SpaceClaim 2020 R1  
 AIM 2020 R1 
 Live (includes SpaceClaim) 2020 R1  
 Autodyn 2020 R1 
 LS-DYNA 2020 R1 
 CFX (includes CFD-Post) 2020 R1 
 Chemkin 2020 R1 
 EnSight 2020 R1 
 FENSAP-ICE 2020 R1  
 Fluent (includes CFD-Post) 2020 R1  
 Forte 2020 R1   
 Polyflow (includes CFD-Post) 2020 R1
 TurboGrid 2020 R1   
 ICEM CFD 2020 R1
 Aqwa 2020 R1
 Customization Files for User Programmable Features 2020 R1  
 Mechanical Products 2020 R1 
 Additive 2020 R1
 ANSYS Sherlock 2020 R1  
 Icepak (includes CFD-Post) 2020 R1  
 ACIS Geometry Interface 2020 R1 
 AutoCAD Geometry Interface 2020 R1  
 Catia, Version 4 Geometry Interface 2020 R1 
 Catia, Version 5 Geometry Interface 2020 R1 
 Catia, Version 6 Geometry Interface 2020 R1 
 Creo Elements/Direct Modeling Geometry Interface 2020 R1
 Creo Parametric Geometry Interface 2020 R1  
 Inventor Geometry Interface 2020 R1 
 JTOpen Geometry Interface 2020 R1   
 NX Geometry Interface 2020 R1   
 Parasolid Geometry Interface  2020 R1   
 Solid Edge Geometry Interface 2020 R1   
 SOLIDWORKS Geometry Interface 2020 R1   
 ANSYS, Inc. License Manager 2020 R1 


          *****  ANSYS COMMAND LINE ARGUMENTS  *****
  BATCH MODE REQUESTED (-b)    = NOLIST
  INPUT FILE COPY MODE (-c)    = COPY
  DISTRIBUTED MEMORY PARALLEL REQUESTED
       2 PARALLEL PROCESSES REQUESTED WITH SINGLE THREAD PER PROCESS
    TOTAL OF     2 CORES REQUESTED
  INPUT FILE NAME              = C:\Users\Akash Levy\Documents\NEM-Relay-CAD\_ProjectScratch\Scr84B0\dummy.dat
  OUTPUT FILE NAME             = C:\Users\Akash Levy\Documents\NEM-Relay-CAD\_ProjectScratch\Scr84B0\solve.out
  START-UP FILE MODE           = NOREAD
  STOP FILE MODE               = NOREAD

 RELEASE= 2020 R1              BUILD= 20.1      UP20191203   VERSION=WINDOWS x64 
 CURRENT JOBNAME=file0  00:24:32  APR 05, 2020 CP=      0.375


 PARAMETER _DS_PROGRESS =     999.0000000    

 /INPUT FILE= ds.dat  LINE=       0



 *** NOTE ***                            CP =       0.547   TIME= 00:24:32
 The /CONFIG,NOELDB command is not valid in a Distributed ANSYS          
 solution.  Command is ignored.                                          

 *GET  _WALLSTRT  FROM  ACTI  ITEM=TIME WALL  VALUE= 0.408888889    

 TITLE= 
 relay--Static Structural (D5)                                                 


 SET PARAMETER DIMENSIONS ON  _WB_PROJECTSCRATCH_DIR
  TYPE=STRI  DIMENSIONS=      248        1        1

 PARAMETER _WB_PROJECTSCRATCH_DIR(1) = C:\Users\Akash Levy\Documents\NEM-Relay-CAD\_ProjectScratch\Scr84B0\

 SET PARAMETER DIMENSIONS ON  _WB_SOLVERFILES_DIR
  TYPE=STRI  DIMENSIONS=      248        1        1

 PARAMETER _WB_SOLVERFILES_DIR(1) = C:\Users\Akash Levy\Documents\NEM-Relay-CAD\relay_files\dp0\SYS-13\MECH\

 SET PARAMETER DIMENSIONS ON  _WB_USERFILES_DIR
  TYPE=STRI  DIMENSIONS=      248        1        1

 PARAMETER _WB_USERFILES_DIR(1) = C:\Users\Akash Levy\Documents\NEM-Relay-CAD\relay_files\user_files\
 --- Data in consistent MKS units. See Solving Units in the help system for more

 MKS UNITS SPECIFIED FOR INTERNAL    
  LENGTH        (l)  = METER (M)
  MASS          (M)  = KILOGRAM (KG)
  TIME          (t)  = SECOND (SEC)
  TEMPERATURE   (T)  = CELSIUS (C)
  TOFFSET            = 273.0
  CHARGE        (Q)  = COULOMB
  FORCE         (f)  = NEWTON (N) (KG-M/SEC2)
  HEAT               = JOULE (N-M)

  PRESSURE           = PASCAL (NEWTON/M**2)
  ENERGY        (W)  = JOULE (N-M)
  POWER         (P)  = WATT (N-M/SEC)
  CURRENT       (i)  = AMPERE (COULOMBS/SEC)
  CAPACITANCE   (C)  = FARAD
  INDUCTANCE    (L)  = HENRY
  MAGNETIC FLUX      = WEBER
  RESISTANCE    (R)  = OHM
  ELECTRIC POTENTIAL = VOLT

 INPUT  UNITS ARE ALSO SET TO MKS 

 *** ANSYS - ENGINEERING ANALYSIS SYSTEM  RELEASE 2020 R1          20.1     ***
 DISTRIBUTED ANSYS Mechanical Enterprise                       

 20120530  VERSION=WINDOWS x64   00:24:32  APR 05, 2020 CP=      0.547

 relay--Static Structural (D5)                                                 



          ***** ANSYS ANALYSIS DEFINITION (PREP7) *****
 *********** Nodes for the whole assembly ***********
 *********** Elements for Body 1 "Relay" ***********
 *********** Elements for Body 2 "Contact 1" ***********
 *********** Elements for Body 3 "Contact 2" ***********
 *********** Elements for Body 4 "Contact 3" ***********
 *********** Elements for Body 5 "Contact 4" ***********
 *********** Elements for Body 6 "Contact 5" ***********
 *********** Elements for Body 7 "Contact 6" ***********
 *********** Elements for Body 8 "Contact 7" ***********
 *********** Elements for Body 9 "Contact 8" ***********
 *********** Send User Defined Coordinate System(s) ***********
 *********** Set Reference Temperature ***********
 *********** Send Materials ***********
 *********** Create Contact "Contact Region 10" ***********
             Real Constant Set For Above Contact Is 11 & 10
 *********** Create Contact "Contact Region 11" ***********
             Real Constant Set For Above Contact Is 13 & 12
 *********** Create Contact "Contact Region 12" ***********
             Real Constant Set For Above Contact Is 15 & 14
 *********** Create Contact "Contact Region 13" ***********
             Real Constant Set For Above Contact Is 17 & 16
 *********** Create Contact "Contact Region 14" ***********
             Real Constant Set For Above Contact Is 19 & 18
 *********** Create Contact "Contact Region 15" ***********
             Real Constant Set For Above Contact Is 21 & 20
 *********** Create Contact "Contact Region 16" ***********
             Real Constant Set For Above Contact Is 23 & 22
 *********** Create Contact "Contact Region 17" ***********
             Real Constant Set For Above Contact Is 25 & 24
 *********** Fixed Supports ***********
 *********** Create Structural MEMS Load ***********
  
 *** EMTGEN Command Macro
  

 *** NOTE *** Display device has not yet been specified with the /SHOW command.  Display commands ignored. 

  LISTING OF THE DATA ON FILE _emtgen.out
  
  ____________________ EMTGEN MACRO SUMMARY ________________________
  
  Macro has generated successfully 1394 TRANS126 elements.
  
  Component of structural boundary nodes: _CMMEMS165 .
  Component name of generated EMT elements = EMTELM .
  Component name of generated EMT plane nodes = _CM165 .
  Active structural DOF for TRANS126 elements = UZ .
  Initial gap between I and J nodes of EMT element = -1.E-07 .
  Minimal gap between I and J nodes = 4.E-08 .
  Modulus of elasticity for EMT contact stiffness = 1.45E+09 .
  Free-space permittivity value = 8.854E-12 .
  EMT stiffness method = AUGMENTED .
  
  ______________________________________________________________________


 ***** ROUTINE COMPLETED *****  CP =        10.766


 --- Number of total nodes = 11941
 --- Number of contact elements = 1646
 --- Number of spring elements = 0
 --- Number of bearing elements = 0
 --- Number of solid elements = 4450
 --- Number of condensed parts = 0
 --- Number of total elements = 7490

 *GET  _WALLBSOL  FROM  ACTI  ITEM=TIME WALL  VALUE= 0.410277778    
 ****************************************************************************
 *************************    SOLUTION       ********************************
 ****************************************************************************

 *****  ANSYS SOLUTION ROUTINE  *****


 PERFORM A STATIC ANALYSIS
  THIS WILL BE A NEW ANALYSIS

 PARAMETER _THICKRATIO =     0.000000000    

 USE SPARSE MATRIX DIRECT SOLVER

 CONTACT INFORMATION PRINTOUT LEVEL       1

 DO NOT COMBINE ELEMENT MATRIX FILES (.emat) AFTER DISTRIBUTED PARALLEL SOLUTION

 DO NOT COMBINE ELEMENT SAVE DATA FILES (.esav) AFTER DISTRIBUTED PARALLEL SOLUTION

 NLDIAG: Nonlinear diagnostics CONT option is set to ON. 
         Writing frequency : each ITERATION.

 DEFINE RESTART CONTROL FOR LOADSTEP LAST
 AT FREQUENCY OF LAST AND NUMBER FOR OVERWRITE IS   -1

 DELETE RESTART FILES OF ENDSTEP
 ****************************************************
 ******************* SOLVE FOR LS 1 OF 100 ****************

 PRINTOUT RESUMED BY /GOP

 SPECIFIED CONSTRAINT VOLT FOR PICKED NODES 
 REAL=_LOADVARI165   IMAG=  0.00000000    

 SPECIFIED CONSTRAINT VOLT FOR PICKED NODES 
 REAL=  0.00000000       IMAG=  0.00000000    

 SPECIFIED CONSTRAINT UX   FOR PICKED NODES 
 REAL=  0.00000000       IMAG=  0.00000000    

 SPECIFIED CONSTRAINT UY   FOR PICKED NODES 
 REAL=  0.00000000       IMAG=  0.00000000    

 SPECIFIED CONSTRAINT UZ   FOR PICKED NODES 
 REAL=  0.00000000       IMAG=  0.00000000    

 ALL SELECT   FOR ITEM=NODE COMPONENT=    
  IN RANGE         1 TO      11941 STEP          1

      11941  NODES (OF      11941  DEFINED) SELECTED BY NSEL  COMMAND.

 ALL SELECT   FOR ITEM=ELEM COMPONENT=    
  IN RANGE         1 TO      10900 STEP          1

       7490  ELEMENTS (OF       7490  DEFINED) SELECTED BY  ESEL  COMMAND.

 USE AUTOMATIC TIME STEPPING THIS LOAD STEP

 USE       1 SUBSTEPS INITIALLY THIS LOAD STEP FOR ALL  DEGREES OF FREEDOM
 FOR AUTOMATIC TIME STEPPING:
   USE     10 SUBSTEPS AS A MAXIMUM
   USE      1 SUBSTEPS AS A MINIMUM

 TIME=  1.0000    

 ERASE THE CURRENT DATABASE OUTPUT CONTROL TABLE.


 WRITE ALL  ITEMS TO THE DATABASE WITH A FREQUENCY OF NONE
   FOR ALL APPLICABLE ENTITIES

 WRITE NSOL ITEMS TO THE DATABASE WITH A FREQUENCY OF ALL 
   FOR ALL APPLICABLE ENTITIES

 WRITE RSOL ITEMS TO THE DATABASE WITH A FREQUENCY OF ALL 
   FOR ALL APPLICABLE ENTITIES

 WRITE EANG ITEMS TO THE DATABASE WITH A FREQUENCY OF ALL 
   FOR ALL APPLICABLE ENTITIES

 WRITE ETMP ITEMS TO THE DATABASE WITH A FREQUENCY OF ALL 
   FOR ALL APPLICABLE ENTITIES

 WRITE VENG ITEMS TO THE DATABASE WITH A FREQUENCY OF ALL 
   FOR ALL APPLICABLE ENTITIES

 WRITE STRS ITEMS TO THE DATABASE WITH A FREQUENCY OF ALL 
   FOR ALL APPLICABLE ENTITIES

 WRITE EPEL ITEMS TO THE DATABASE WITH A FREQUENCY OF ALL 
   FOR ALL APPLICABLE ENTITIES

 WRITE EPPL ITEMS TO THE DATABASE WITH A FREQUENCY OF ALL 
   FOR ALL APPLICABLE ENTITIES

 WRITE CONT ITEMS TO THE DATABASE WITH A FREQUENCY OF ALL 
   FOR ALL APPLICABLE ENTITIES

 CONVERGENCE ON U    BASED ON A REFERENCE VALUE OF 0.1000E-08
   WITH A TOLERANCE OF 0.5000E-02
   USING THE INFINITE NORM (CHECK EACH DEGREE OF FREEDOM SEPARATELY)

 PARAMETER ARG1 =     4.700000000    

 PARAMETER ARG2 =    0.1000000000    

 PARAMETER EPSR =     4.700000000    

 PARAMETER KN =    0.1000000000    

 FINISH SOLUTION PROCESSING


 ***** ROUTINE COMPLETED *****  CP =        10.922



 *** ANSYS - ENGINEERING ANALYSIS SYSTEM  RELEASE 2020 R1          20.1     ***
 DISTRIBUTED ANSYS Mechanical Enterprise                       

 20120530  VERSION=WINDOWS x64   00:24:38  APR 05, 2020 CP=     10.922

                                                                               



          ***** ANSYS ANALYSIS DEFINITION (PREP7) *****

 SELECT       FOR ITEM=ENAM COMPONENT=    
  IN RANGE       126 TO        126 STEP          1

       1394  ELEMENTS (OF       7490  DEFINED) SELECTED BY  ESEL  COMMAND.

 *GET  NELEMS    FROM  ELEM  ITEM=COUN           VALUE=  1394.00000    

 PARAMETER ELM =     0.000000000    

 *DO LOOP ON PARAMETER= I FROM  1.0000     TO  1394.0     BY  1.0000    

 PARAMETER ELM =     9507.000000    

 *GET  RNUM      FROM  ELEM      9507  ITEM=ATTR REAL      VALUE=  26.0000000    

 *GET  R7        FROM  RCON     26  ITEM=CONS 7     VALUE= 0.430479885E-25

 PARAMETER R7_NEW =    0.2023255458E-24

 MODIFY REAL CONSTANTS FOR SET     26  STARTING WITH  7  NEW VALUES ARE

   0.20233E-24   0.0000       0.0000       0.0000       0.0000       0.0000    

 *GET  R5        FROM  RCON     26  ITEM=CONS 5     VALUE=  70.4987387    

 PARAMETER R5_NEW =     7.049873873    

 MODIFY REAL CONSTANTS FOR SET     26  STARTING WITH  5  NEW VALUES ARE

    7.0499       0.0000      0.20233E-24   0.0000       0.0000       0.0000    

 *ENDDO  INDEX= I                               


 ***** ROUTINE COMPLETED *****  CP =        11.375



 *****  ANSYS SOLUTION ROUTINE  *****

 SELECT ALL ENTITIES OF TYPE= ALL  AND BELOW

 *GET  ANSINTER_  FROM  ACTI  ITEM=INT        VALUE=  0.00000000    

 *IF  ANSINTER_                         ( =   0.00000     )  NE  
      0                                 ( =   0.00000     )  THEN    

 *ENDIF

 *** NOTE ***                            CP =      11.406   TIME= 00:24:38
 The automatic domain decomposition logic has selected the MESH domain   
 decomposition method with 2 processes per solution.                     

 *****  ANSYS SOLVE    COMMAND  *****

 *** NOTE ***                            CP =      11.438   TIME= 00:24:38
 There is no title defined for this analysis.                            

 *** WARNING ***                         CP =      11.438   TIME= 00:24:38
 Element shape checking is currently inactive.  Issue SHPP,ON or         
 SHPP,WARN to reactivate, if desired.                                    

 *** NOTE ***                            CP =      11.500   TIME= 00:24:38
 The model data was checked and warning messages were found.             
  Please review output or errors file ( C:\Users\Akash                   
 Levy\Documents\NEM-Relay-CAD\_ProjectScratch\Scr84B0\file0.err ) for    
 these warning messages.                                                 

 *** SELECTION OF ELEMENT TECHNOLOGIES FOR APPLICABLE ELEMENTS ***
      --- GIVE SUGGESTIONS AND RESET THE KEY OPTIONS ---

 ELEMENT TYPE    1 IS SOLID187. IT IS NOT ASSOCIATED WITH FULLY INCOMPRESSIBLE
 HYPERELASTIC MATERIALS. NO SUGGESTION IS AVAILABLE AND NO RESETTING IS NEEDED.

 ELEMENT TYPE    2 IS SOLID186. KEYOPT(2)=0 IS SUGGESTED AND HAS BEEN RESET.
  KEYOPT(1-12)=    0    0    0    0    0    0    0    0    0    0    0    0

 ELEMENT TYPE    3 IS SOLID186. KEYOPT(2)=0 IS SUGGESTED AND HAS BEEN RESET.
  KEYOPT(1-12)=    0    0    0    0    0    0    0    0    0    0    0    0

 ELEMENT TYPE    4 IS SOLID186. KEYOPT(2)=0 IS SUGGESTED AND HAS BEEN RESET.
  KEYOPT(1-12)=    0    0    0    0    0    0    0    0    0    0    0    0

 ELEMENT TYPE    5 IS SOLID186. KEYOPT(2)=0 IS SUGGESTED AND HAS BEEN RESET.
  KEYOPT(1-12)=    0    0    0    0    0    0    0    0    0    0    0    0

 ELEMENT TYPE    6 IS SOLID187. IT IS NOT ASSOCIATED WITH FULLY INCOMPRESSIBLE
 HYPERELASTIC MATERIALS. NO SUGGESTION IS AVAILABLE AND NO RESETTING IS NEEDED.

 ELEMENT TYPE    7 IS SOLID187. IT IS NOT ASSOCIATED WITH FULLY INCOMPRESSIBLE
 HYPERELASTIC MATERIALS. NO SUGGESTION IS AVAILABLE AND NO RESETTING IS NEEDED.

 ELEMENT TYPE    8 IS SOLID187. IT IS NOT ASSOCIATED WITH FULLY INCOMPRESSIBLE
 HYPERELASTIC MATERIALS. NO SUGGESTION IS AVAILABLE AND NO RESETTING IS NEEDED.

 ELEMENT TYPE    9 IS SOLID187. IT IS NOT ASSOCIATED WITH FULLY INCOMPRESSIBLE
 HYPERELASTIC MATERIALS. NO SUGGESTION IS AVAILABLE AND NO RESETTING IS NEEDED.



 *** ANSYS - ENGINEERING ANALYSIS SYSTEM  RELEASE 2020 R1          20.1     ***
 DISTRIBUTED ANSYS Mechanical Enterprise                       

 20120530  VERSION=WINDOWS x64   00:24:38  APR 05, 2020 CP=     11.500

                                                                               



                       S O L U T I O N   O P T I O N S

   PROBLEM DIMENSIONALITY. . . . . . . . . . . . .3-D                  
   DEGREES OF FREEDOM. . . . . . UX   UY   UZ   VOLT
   ANALYSIS TYPE . . . . . . . . . . . . . . . . .STATIC (STEADY-STATE)
   OFFSET TEMPERATURE FROM ABSOLUTE ZERO . . . . .  273.15    
   EQUATION SOLVER OPTION. . . . . . . . . . . . .SPARSE             
   NEWTON-RAPHSON OPTION . . . . . . . . . . . . .PROGRAM CHOSEN   
   GLOBALLY ASSEMBLED MATRIX . . . . . . . . . . .UNSYMMETRIC

 *** NOTE ***                            CP =      11.547   TIME= 00:24:38
 The Solution Control Option is only valid for single field structural,  
 single field thermal, single field diffusion, coupled                   
 thermal-diffusion analyses and coupled-field analyses with structural   
 degrees of freedom.  The SOLCONTROL,ON command (if present) has been    
 de-activated.                                                           

 *** NOTE ***                            CP =      11.547   TIME= 00:24:38
 This nonlinear analysis defaults to using the full Newton-Raphson       
 solution procedure.  This can be modified using the NROPT command.      

 *** NOTE ***                            CP =      11.766   TIME= 00:24:38
 Symmetric Deformable- deformable contact pair identified by real        
 constant set 10 and contact element type 10 has been set up.  The       
 companion pair has real constant set ID 11.  Both pairs should have     
 the same behavior.                                                      
 ANSYS will deactivate the current pair and keep its companion pair,     
 resulting in asymmetric contact.                                        
 Small sliding logic is assumed
 Contact algorithm: Augmented Lagrange method
 Contact detection at: Gauss integration point
 Contact stiffness factor FKN                  10.000    
 The resulting initial contact stiffness      0.24380E+21
 Default penetration tolerance factor FTOLN   0.10000    
 The resulting penetration tolerance          0.11895E-07
 Default opening contact stiffness OPSF will be used.
 Default tangent stiffness factor FKT          1.0000    
 Default elastic slip factor SLTOL            0.50000E-02
 The resulting elastic slip tolerance         0.82910E-09
 Update contact stiffness at each iteration
 Default Max. friction stress TAUMAX          0.10000E+21
 Average contact surface length               0.16582E-06
 Average contact pair depth                   0.11895E-06
 Default pinball region factor PINB           0.25000    
 The resulting pinball region                 0.29737E-07
 Initial penetration/gap is excluded.
 Bonded contact (always) is defined.

 *** NOTE ***                            CP =      11.766   TIME= 00:24:38
 Max.  Initial penetration 0 was detected between contact element 7921   
 and target element 8024.                                                
 ****************************************
  

 *** NOTE ***                            CP =      11.766   TIME= 00:24:38
 Symmetric Deformable- deformable contact pair identified by real        
 constant set 11 and contact element type 10 has been set up.  The       
 companion pair has real constant set ID 10.  Both pairs should have     
 the same behavior.                                                      
 ANSYS will keep the current pair and deactivate its companion pair,     
 resulting in asymmetric contact.                                        
 Small sliding logic is assumed
 Contact algorithm: Augmented Lagrange method
 Contact detection at: Gauss integration point
 Contact stiffness factor FKN                  10.000    
 The resulting initial contact stiffness      0.24380E+21
 Default penetration tolerance factor FTOLN   0.10000    
 The resulting penetration tolerance          0.24439E-08
 Default opening contact stiffness OPSF will be used.
 Default tangent stiffness factor FKT          1.0000    
 Default elastic slip factor SLTOL            0.50000E-02
 The resulting elastic slip tolerance         0.31213E-09
 Update contact stiffness at each iteration
 Default Max. friction stress TAUMAX          0.10000E+21
 Average contact surface length               0.62426E-07
 Average contact pair depth                   0.24439E-07
 Default pinball region factor PINB           0.25000    
 The resulting pinball region                 0.61097E-08
 Initial penetration/gap is excluded.
 Bonded contact (always) is defined.

 *** NOTE ***                            CP =      11.766   TIME= 00:24:38
 Max.  Initial penetration 0 was detected between contact element 7981   
 and target element 7879.                                                
 ****************************************
  

 *** NOTE ***                            CP =      11.766   TIME= 00:24:38
 Symmetric Deformable- deformable contact pair identified by real        
 constant set 12 and contact element type 12 has been set up.  The       
 companion pair has real constant set ID 13.  Both pairs should have     
 the same behavior.                                                      
 ANSYS will deactivate the current pair and keep its companion pair,     
 resulting in asymmetric contact.                                        
 Small sliding logic is assumed
 Contact algorithm: Augmented Lagrange method
 Contact detection at: Gauss integration point
 Contact stiffness factor FKN                  10.000    
 The resulting initial contact stiffness      0.26104E+21
 Default penetration tolerance factor FTOLN   0.10000    
 The resulting penetration tolerance          0.11109E-07
 Default opening contact stiffness OPSF will be used.
 Default tangent stiffness factor FKT          1.0000    
 Default elastic slip factor SLTOL            0.50000E-02
 The resulting elastic slip tolerance         0.82189E-09
 Update contact stiffness at each iteration
 Default Max. friction stress TAUMAX          0.10000E+21
 Average contact surface length               0.16438E-06
 Average contact pair depth                   0.11109E-06
 Default pinball region factor PINB           0.25000    
 The resulting pinball region                 0.27773E-07
 Initial penetration/gap is excluded.
 Bonded contact (always) is defined.

 *** NOTE ***                            CP =      11.766   TIME= 00:24:38
 Max.  Initial penetration 0 was detected between contact element 8118   
 and target element 8220.                                                
 ****************************************
  

 *** NOTE ***                            CP =      11.766   TIME= 00:24:38
 Symmetric Deformable- deformable contact pair identified by real        
 constant set 13 and contact element type 12 has been set up.  The       
 companion pair has real constant set ID 12.  Both pairs should have     
 the same behavior.                                                      
 ANSYS will keep the current pair and deactivate its companion pair,     
 resulting in asymmetric contact.                                        
 Small sliding logic is assumed
 Contact algorithm: Augmented Lagrange method
 Contact detection at: Gauss integration point
 Contact stiffness factor FKN                  10.000    
 The resulting initial contact stiffness      0.26104E+21
 Default penetration tolerance factor FTOLN   0.10000    
 The resulting penetration tolerance          0.24439E-08
 Default opening contact stiffness OPSF will be used.
 Default tangent stiffness factor FKT          1.0000    
 Default elastic slip factor SLTOL            0.50000E-02
 The resulting elastic slip tolerance         0.31213E-09
 Update contact stiffness at each iteration
 Default Max. friction stress TAUMAX          0.10000E+21
 Average contact surface length               0.62426E-07
 Average contact pair depth                   0.24439E-07
 Default pinball region factor PINB           0.25000    
 The resulting pinball region                 0.61097E-08
 Initial penetration/gap is excluded.
 Bonded contact (always) is defined.

 *** NOTE ***                            CP =      11.766   TIME= 00:24:38
 Max.  Initial penetration 0 was detected between contact element 8177   
 and target element 8066.                                                
 ****************************************
  

 *** NOTE ***                            CP =      11.766   TIME= 00:24:38
 Symmetric Deformable- deformable contact pair identified by real        
 constant set 14 and contact element type 14 has been set up.  The       
 companion pair has real constant set ID 15.  Both pairs should have     
 the same behavior.                                                      
 ANSYS will deactivate the current pair and keep its companion pair,     
 resulting in asymmetric contact.                                        
 Small sliding logic is assumed
 Contact algorithm: Augmented Lagrange method
 Contact detection at: Gauss integration point
 Contact stiffness factor FKN                  10.000    
 The resulting initial contact stiffness      0.23942E+21
 Default penetration tolerance factor FTOLN   0.10000    
 The resulting penetration tolerance          0.12112E-07
 Default opening contact stiffness OPSF will be used.
 Default tangent stiffness factor FKT          1.0000    
 Default elastic slip factor SLTOL            0.50000E-02
 The resulting elastic slip tolerance         0.82639E-09
 Update contact stiffness at each iteration
 Default Max. friction stress TAUMAX          0.10000E+21
 Average contact surface length               0.16528E-06
 Average contact pair depth                   0.12112E-06
 Default pinball region factor PINB           0.25000    
 The resulting pinball region                 0.30281E-07
 Initial penetration/gap is excluded.
 Bonded contact (always) is defined.

 *** NOTE ***                            CP =      11.766   TIME= 00:24:38
 Max.  Initial penetration 0 was detected between contact element 8315   
 and target element 8445.                                                
 ****************************************
  

 *** NOTE ***                            CP =      11.766   TIME= 00:24:38
 Symmetric Deformable- deformable contact pair identified by real        
 constant set 15 and contact element type 14 has been set up.  The       
 companion pair has real constant set ID 14.  Both pairs should have     
 the same behavior.                                                      
 ANSYS will keep the current pair and deactivate its companion pair,     
 resulting in asymmetric contact.                                        
 Small sliding logic is assumed
 Contact algorithm: Augmented Lagrange method
 Contact detection at: Gauss integration point
 Contact stiffness factor FKN                  10.000    
 The resulting initial contact stiffness      0.23942E+21
 Default penetration tolerance factor FTOLN   0.10000    
 The resulting penetration tolerance          0.26261E-08
 Default opening contact stiffness OPSF will be used.
 Default tangent stiffness factor FKT          1.0000    
 Default elastic slip factor SLTOL            0.50000E-02
 The resulting elastic slip tolerance         0.31213E-09
 Update contact stiffness at each iteration
 Default Max. friction stress TAUMAX          0.10000E+21
 Average contact surface length               0.62426E-07
 Average contact pair depth                   0.26261E-07
 Default pinball region factor PINB           0.25000    
 The resulting pinball region                 0.65652E-08
 Initial penetration/gap is excluded.
 Bonded contact (always) is defined.

 *** NOTE ***                            CP =      11.766   TIME= 00:24:38
 Max.  Initial penetration 0 was detected between contact element 8373   
 and target element 8259.                                                
 ****************************************
  

 *** NOTE ***                            CP =      11.766   TIME= 00:24:38
 Symmetric Deformable- deformable contact pair identified by real        
 constant set 16 and contact element type 16 has been set up.  The       
 companion pair has real constant set ID 17.  Both pairs should have     
 the same behavior.                                                      
 ANSYS will deactivate the current pair and keep its companion pair,     
 resulting in asymmetric contact.                                        
 Small sliding logic is assumed
 Contact algorithm: Augmented Lagrange method
 Contact detection at: Gauss integration point
 Contact stiffness factor FKN                  10.000    
 The resulting initial contact stiffness      0.23710E+21
 Default penetration tolerance factor FTOLN   0.10000    
 The resulting penetration tolerance          0.12231E-07
 Default opening contact stiffness OPSF will be used.
 Default tangent stiffness factor FKT          1.0000    
 Default elastic slip factor SLTOL            0.50000E-02
 The resulting elastic slip tolerance         0.84863E-09
 Update contact stiffness at each iteration
 Default Max. friction stress TAUMAX          0.10000E+21
 Average contact surface length               0.16973E-06
 Average contact pair depth                   0.12231E-06
 Default pinball region factor PINB           0.25000    
 The resulting pinball region                 0.30578E-07
 Initial penetration/gap is excluded.
 Bonded contact (always) is defined.

 *** NOTE ***                            CP =      11.766   TIME= 00:24:38
 Max.  Initial penetration 0 was detected between contact element 8508   
 and target element 8609.                                                
 ****************************************
  

 *** NOTE ***                            CP =      11.766   TIME= 00:24:38
 Symmetric Deformable- deformable contact pair identified by real        
 constant set 17 and contact element type 16 has been set up.  The       
 companion pair has real constant set ID 16.  Both pairs should have     
 the same behavior.                                                      
 ANSYS will keep the current pair and deactivate its companion pair,     
 resulting in asymmetric contact.                                        
 Small sliding logic is assumed
 Contact algorithm: Augmented Lagrange method
 Contact detection at: Gauss integration point
 Contact stiffness factor FKN                  10.000    
 The resulting initial contact stiffness      0.23710E+21
 Default penetration tolerance factor FTOLN   0.10000    
 The resulting penetration tolerance          0.26261E-08
 Default opening contact stiffness OPSF will be used.
 Default tangent stiffness factor FKT          1.0000    
 Default elastic slip factor SLTOL            0.50000E-02
 The resulting elastic slip tolerance         0.31213E-09
 Update contact stiffness at each iteration
 Default Max. friction stress TAUMAX          0.10000E+21
 Average contact surface length               0.62426E-07
 Average contact pair depth                   0.26261E-07
 Default pinball region factor PINB           0.25000    
 The resulting pinball region                 0.65652E-08
 Initial penetration/gap is excluded.
 Bonded contact (always) is defined.

 *** NOTE ***                            CP =      11.766   TIME= 00:24:38
 Max.  Initial penetration 0 was detected between contact element 8565   
 and target element 8454.                                                
 ****************************************
  

 *** NOTE ***                            CP =      11.766   TIME= 00:24:38
 Symmetric Deformable- deformable contact pair identified by real        
 constant set 18 and contact element type 18 has been set up.  The       
 companion pair has real constant set ID 19.  Both pairs should have     
 the same behavior.                                                      
 ANSYS will deactivate the current pair and keep its companion pair,     
 resulting in asymmetric contact.                                        
 Small sliding logic is assumed
 Contact algorithm: Augmented Lagrange method
 Contact detection at: Gauss integration point
 Contact stiffness factor FKN                  10.000    
 The resulting initial contact stiffness      0.28099E+21
 Default penetration tolerance factor FTOLN   0.10000    
 The resulting penetration tolerance          0.10320E-07
 Default opening contact stiffness OPSF will be used.
 Default tangent stiffness factor FKT          1.0000    
 Default elastic slip factor SLTOL            0.50000E-02
 The resulting elastic slip tolerance         0.75699E-09
 Update contact stiffness at each iteration
 Default Max. friction stress TAUMAX          0.10000E+21
 Average contact surface length               0.15140E-06
 Average contact pair depth                   0.10320E-06
 Default pinball region factor PINB           0.25000    
 The resulting pinball region                 0.25801E-07
 Initial penetration/gap is excluded.
 Bonded contact (always) is defined.

 *** NOTE ***                            CP =      11.766   TIME= 00:24:38
 Max.  Initial penetration 0 was detected between contact element 8702   
 and target element 8830.                                                
 ****************************************
  

 *** NOTE ***                            CP =      11.766   TIME= 00:24:38
 Symmetric Deformable- deformable contact pair identified by real        
 constant set 19 and contact element type 18 has been set up.  The       
 companion pair has real constant set ID 18.  Both pairs should have     
 the same behavior.                                                      
 ANSYS will keep the current pair and deactivate its companion pair,     
 resulting in asymmetric contact.                                        
 Small sliding logic is assumed
 Contact algorithm: Augmented Lagrange method
 Contact detection at: Gauss integration point
 Contact stiffness factor FKN                  10.000    
 The resulting initial contact stiffness      0.28099E+21
 Default penetration tolerance factor FTOLN   0.10000    
 The resulting penetration tolerance          0.26943E-08
 Default opening contact stiffness OPSF will be used.
 Default tangent stiffness factor FKT          1.0000    
 Default elastic slip factor SLTOL            0.50000E-02
 The resulting elastic slip tolerance         0.37864E-09
 Update contact stiffness at each iteration
 Default Max. friction stress TAUMAX          0.10000E+21
 Average contact surface length               0.75727E-07
 Average contact pair depth                   0.26943E-07
 Default pinball region factor PINB           0.25000    
 The resulting pinball region                 0.67357E-08
 Initial penetration/gap is excluded.
 Bonded contact (always) is defined.

 *** NOTE ***                            CP =      11.766   TIME= 00:24:38
 Max.  Initial penetration 0 was detected between contact element 8761   
 and target element 8663.                                                
 ****************************************
  

 *** NOTE ***                            CP =      11.766   TIME= 00:24:38
 Symmetric Deformable- deformable contact pair identified by real        
 constant set 20 and contact element type 20 has been set up.  The       
 companion pair has real constant set ID 21.  Both pairs should have     
 the same behavior.                                                      
 ANSYS will deactivate the current pair and keep its companion pair,     
 resulting in asymmetric contact.                                        
 Small sliding logic is assumed
 Contact algorithm: Augmented Lagrange method
 Contact detection at: Gauss integration point
 Contact stiffness factor FKN                  10.000    
 The resulting initial contact stiffness      0.25728E+21
 Default penetration tolerance factor FTOLN   0.10000    
 The resulting penetration tolerance          0.11272E-07
 Default opening contact stiffness OPSF will be used.
 Default tangent stiffness factor FKT          1.0000    
 Default elastic slip factor SLTOL            0.50000E-02
 The resulting elastic slip tolerance         0.77586E-09
 Update contact stiffness at each iteration
 Default Max. friction stress TAUMAX          0.10000E+21
 Average contact surface length               0.15517E-06
 Average contact pair depth                   0.11272E-06
 Default pinball region factor PINB           0.25000    
 The resulting pinball region                 0.28179E-07
 Initial penetration/gap is excluded.
 Bonded contact (always) is defined.

 *** NOTE ***                            CP =      11.766   TIME= 00:24:38
 Max.  Initial penetration 0 was detected between contact element 8919   
 and target element 9048.                                                
 ****************************************
  

 *** NOTE ***                            CP =      11.766   TIME= 00:24:38
 Symmetric Deformable- deformable contact pair identified by real        
 constant set 21 and contact element type 20 has been set up.  The       
 companion pair has real constant set ID 20.  Both pairs should have     
 the same behavior.                                                      
 ANSYS will keep the current pair and deactivate its companion pair,     
 resulting in asymmetric contact.                                        
 Small sliding logic is assumed
 Contact algorithm: Augmented Lagrange method
 Contact detection at: Gauss integration point
 Contact stiffness factor FKN                  10.000    
 The resulting initial contact stiffness      0.25728E+21
 Default penetration tolerance factor FTOLN   0.10000    
 The resulting penetration tolerance          0.26962E-08
 Default opening contact stiffness OPSF will be used.
 Default tangent stiffness factor FKT          1.0000    
 Default elastic slip factor SLTOL            0.50000E-02
 The resulting elastic slip tolerance         0.37034E-09
 Update contact stiffness at each iteration
 Default Max. friction stress TAUMAX          0.10000E+21
 Average contact surface length               0.74068E-07
 Average contact pair depth                   0.26962E-07
 Default pinball region factor PINB           0.25000    
 The resulting pinball region                 0.67405E-08
 Initial penetration/gap is excluded.
 Bonded contact (always) is defined.

 *** NOTE ***                            CP =      11.766   TIME= 00:24:38
 Max.  Initial penetration 0 was detected between contact element 8971   
 and target element 8869.                                                
 ****************************************
  

 *** NOTE ***                            CP =      11.766   TIME= 00:24:38
 Symmetric Deformable- deformable contact pair identified by real        
 constant set 22 and contact element type 22 has been set up.  The       
 companion pair has real constant set ID 23.  Both pairs should have     
 the same behavior.                                                      
 ANSYS will deactivate the current pair and keep its companion pair,     
 resulting in asymmetric contact.                                        
 Small sliding logic is assumed
 Contact algorithm: Augmented Lagrange method
 Contact detection at: Gauss integration point
 Contact stiffness factor FKN                  10.000    
 The resulting initial contact stiffness      0.26268E+21
 Default penetration tolerance factor FTOLN   0.10000    
 The resulting penetration tolerance          0.11040E-07
 Default opening contact stiffness OPSF will be used.
 Default tangent stiffness factor FKT          1.0000    
 Default elastic slip factor SLTOL            0.50000E-02
 The resulting elastic slip tolerance         0.82214E-09
 Update contact stiffness at each iteration
 Default Max. friction stress TAUMAX          0.10000E+21
 Average contact surface length               0.16443E-06
 Average contact pair depth                   0.11040E-06
 Default pinball region factor PINB           0.25000    
 The resulting pinball region                 0.27600E-07
 Initial penetration/gap is excluded.
 Bonded contact (always) is defined.

 *** NOTE ***                            CP =      11.766   TIME= 00:24:38
 Max.  Initial penetration 0 was detected between contact element 9126   
 and target element 9260.                                                
 ****************************************
  

 *** NOTE ***                            CP =      11.766   TIME= 00:24:38
 Symmetric Deformable- deformable contact pair identified by real        
 constant set 23 and contact element type 22 has been set up.  The       
 companion pair has real constant set ID 22.  Both pairs should have     
 the same behavior.                                                      
 ANSYS will keep the current pair and deactivate its companion pair,     
 resulting in asymmetric contact.                                        
 Small sliding logic is assumed
 Contact algorithm: Augmented Lagrange method
 Contact detection at: Gauss integration point
 Contact stiffness factor FKN                  10.000    
 The resulting initial contact stiffness      0.26268E+21
 Default penetration tolerance factor FTOLN   0.10000    
 The resulting penetration tolerance          0.26111E-08
 Default opening contact stiffness OPSF will be used.
 Default tangent stiffness factor FKT          1.0000    
 Default elastic slip factor SLTOL            0.50000E-02
 The resulting elastic slip tolerance         0.36457E-09
 Update contact stiffness at each iteration
 Default Max. friction stress TAUMAX          0.10000E+21
 Average contact surface length               0.72915E-07
 Average contact pair depth                   0.26111E-07
 Default pinball region factor PINB           0.25000    
 The resulting pinball region                 0.65279E-08
 Initial penetration/gap is excluded.
 Bonded contact (always) is defined.

 *** NOTE ***                            CP =      11.766   TIME= 00:24:38
 Max.  Initial penetration 0 was detected between contact element 9173   
 and target element 9120.                                                
 ****************************************
  

 *** NOTE ***                            CP =      11.766   TIME= 00:24:38
 Symmetric Deformable- deformable contact pair identified by real        
 constant set 24 and contact element type 24 has been set up.  The       
 companion pair has real constant set ID 25.  Both pairs should have     
 the same behavior.                                                      
 ANSYS will deactivate the current pair and keep its companion pair,     
 resulting in asymmetric contact.                                        
 Small sliding logic is assumed
 Contact algorithm: Augmented Lagrange method
 Contact detection at: Gauss integration point
 Contact stiffness factor FKN                  10.000    
 The resulting initial contact stiffness      0.27861E+21
 Default penetration tolerance factor FTOLN   0.10000    
 The resulting penetration tolerance          0.10409E-07
 Default opening contact stiffness OPSF will be used.
 Default tangent stiffness factor FKT          1.0000    
 Default elastic slip factor SLTOL            0.50000E-02
 The resulting elastic slip tolerance         0.76866E-09
 Update contact stiffness at each iteration
 Default Max. friction stress TAUMAX          0.10000E+21
 Average contact surface length               0.15373E-06
 Average contact pair depth                   0.10409E-06
 Default pinball region factor PINB           0.25000    
 The resulting pinball region                 0.26022E-07
 Initial penetration/gap is excluded.
 Bonded contact (always) is defined.

 *** NOTE ***                            CP =      11.766   TIME= 00:24:38
 Max.  Initial penetration 0 was detected between contact element 9341   
 and target element 9486.                                                
 ****************************************
  

 *** NOTE ***                            CP =      11.766   TIME= 00:24:38
 Symmetric Deformable- deformable contact pair identified by real        
 constant set 25 and contact element type 24 has been set up.  The       
 companion pair has real constant set ID 24.  Both pairs should have     
 the same behavior.                                                      
 ANSYS will keep the current pair and deactivate its companion pair,     
 resulting in asymmetric contact.                                        
 Small sliding logic is assumed
 Contact algorithm: Augmented Lagrange method
 Contact detection at: Gauss integration point
 Default contact stiffness factor FKN          1.0000    
 The resulting initial contact stiffness      0.27861E+20
 Default penetration tolerance factor FTOLN   0.10000    
 The resulting penetration tolerance          0.25938E-08
 Default opening contact stiffness OPSF will be used.
 Default tangent stiffness factor FKT          1.0000    
 Default elastic slip factor SLTOL            0.50000E-02
 The resulting elastic slip tolerance         0.37214E-09
 Update contact stiffness at each iteration
 Default Max. friction stress TAUMAX          0.10000E+21
 Average contact surface length               0.74428E-07
 Average contact pair depth                   0.25938E-07
 Default pinball region factor PINB           0.25000    
 The resulting pinball region                 0.64846E-08
 Initial penetration/gap is excluded.
 Bonded contact (always) is defined.

 *** NOTE ***                            CP =      11.766   TIME= 00:24:38
 Max.  Initial penetration 0 was detected between contact element 9399   
 and target element 9300.                                                
 ****************************************
  

 *** WARNING ***                         CP =      11.766   TIME= 00:24:38
 Maximum contact stiffness 2.809944716E+20 is too big which can cause an 
 accuracy problem, you may scale the force units in the model.           

 *** WARNING ***                         CP =      11.766   TIME= 00:24:38
 Minimum contact depth 2.443885472E-08 is too small which can cause an   
 accuracy problem, you may scale the length units in the model.          
  
  

  
  
     D I S T R I B U T E D   D O M A I N   D E C O M P O S E R
  
  ...Number of elements: 7490
  ...Number of nodes:    11941
  ...Decompose to 2 CPU domains
  ...Element load balance ratio =     1.208


                      L O A D   S T E P   O P T I O N S

   LOAD STEP NUMBER. . . . . . . . . . . . . . . .     1
   TIME AT END OF THE LOAD STEP. . . . . . . . . .  1.0000    
   AUTOMATIC TIME STEPPING . . . . . . . . . . . .    ON
      INITIAL NUMBER OF SUBSTEPS . . . . . . . . .     1
      MAXIMUM NUMBER OF SUBSTEPS . . . . . . . . .    10
      MINIMUM NUMBER OF SUBSTEPS . . . . . . . . .     1
   MAXIMUM NUMBER OF EQUILIBRIUM ITERATIONS. . . .    25
   STEP CHANGE BOUNDARY CONDITIONS . . . . . . . .    NO
   TERMINATE ANALYSIS IF NOT CONVERGED . . . . . .YES (EXIT)  
   CONVERGENCE CONTROLS
      LABEL   REFERENCE    TOLERANCE  NORM     MINREF
       U      0.1000E-08   0.5000E-02   0     -1.000    
   PRINT OUTPUT CONTROLS . . . . . . . . . . . . .NO PRINTOUT
   DATABASE OUTPUT CONTROLS
      ITEM     FREQUENCY   COMPONENT
       ALL       NONE               
      NSOL        ALL               
      RSOL        ALL               
      EANG        ALL               
      ETMP        ALL               
      VENG        ALL               
      STRS        ALL               
      EPEL        ALL               
      EPPL        ALL               
      CONT        ALL               


 *** NOTE ***                            CP =      12.016   TIME= 00:24:38
 Symmetric Deformable- deformable contact pair identified by real        
 constant set 12 and contact element type 12 has been set up.  The       
 companion pair has real constant set ID 13.  Both pairs should have     
 the same behavior.                                                      
 ANSYS will deactivate the current pair and keep its companion pair,     
 resulting in asymmetric contact.                                        
 Small sliding logic is assumed
 Contact algorithm: Augmented Lagrange method
 Contact detection at: Gauss integration point
 Contact stiffness factor FKN                  10.000    
 The resulting initial contact stiffness      0.26104E+21
 Default penetration tolerance factor FTOLN   0.10000    
 The resulting penetration tolerance          0.11109E-07
 Default opening contact stiffness OPSF will be used.
 Default tangent stiffness factor FKT          1.0000    
 Default elastic slip factor SLTOL            0.50000E-02
 The resulting elastic slip tolerance         0.82189E-09
 Update contact stiffness at each iteration
 Default Max. friction stress TAUMAX          0.10000E+21
 Average contact surface length               0.16438E-06
 Average contact pair depth                   0.11109E-06
 Default pinball region factor PINB           0.25000    
 The resulting pinball region                 0.27773E-07
 Initial penetration/gap is excluded.
 Bonded contact (always) is defined.

 *** NOTE ***                            CP =      12.016   TIME= 00:24:38
 Max.  Initial penetration 0 was detected between contact element 8118   
 and target element 8220.                                                
 ****************************************
  

 *** NOTE ***                            CP =      12.016   TIME= 00:24:38
 Symmetric Deformable- deformable contact pair identified by real        
 constant set 13 and contact element type 12 has been set up.  The       
 companion pair has real constant set ID 12.  Both pairs should have     
 the same behavior.                                                      
 ANSYS will keep the current pair and deactivate its companion pair,     
 resulting in asymmetric contact.                                        
 Small sliding logic is assumed
 Contact algorithm: Augmented Lagrange method
 Contact detection at: Gauss integration point
 Contact stiffness factor FKN                  10.000    
 The resulting initial contact stiffness      0.26104E+21
 Default penetration tolerance factor FTOLN   0.10000    
 The resulting penetration tolerance          0.24439E-08
 Default opening contact stiffness OPSF will be used.
 Default tangent stiffness factor FKT          1.0000    
 Default elastic slip factor SLTOL            0.50000E-02
 The resulting elastic slip tolerance         0.31213E-09
 Update contact stiffness at each iteration
 Default Max. friction stress TAUMAX          0.10000E+21
 Average contact surface length               0.62426E-07
 Average contact pair depth                   0.24439E-07
 Default pinball region factor PINB           0.25000    
 The resulting pinball region                 0.61097E-08
 Initial penetration/gap is excluded.
 Bonded contact (always) is defined.

 *** NOTE ***                            CP =      12.016   TIME= 00:24:38
 Max.  Initial penetration 0 was detected between contact element 8177   
 and target element 8066.                                                
 ****************************************
  

 *** NOTE ***                            CP =      12.016   TIME= 00:24:38
 Symmetric Deformable- deformable contact pair identified by real        
 constant set 14 and contact element type 14 has been set up.  The       
 companion pair has real constant set ID 15.  Both pairs should have     
 the same behavior.                                                      
 ANSYS will deactivate the current pair and keep its companion pair,     
 resulting in asymmetric contact.                                        
 Small sliding logic is assumed
 Contact algorithm: Augmented Lagrange method
 Contact detection at: Gauss integration point
 Contact stiffness factor FKN                  10.000    
 The resulting initial contact stiffness      0.23942E+21
 Default penetration tolerance factor FTOLN   0.10000    
 The resulting penetration tolerance          0.12112E-07
 Default opening contact stiffness OPSF will be used.
 Default tangent stiffness factor FKT          1.0000    
 Default elastic slip factor SLTOL            0.50000E-02
 The resulting elastic slip tolerance         0.82639E-09
 Update contact stiffness at each iteration
 Default Max. friction stress TAUMAX          0.10000E+21
 Average contact surface length               0.16528E-06
 Average contact pair depth                   0.12112E-06
 Default pinball region factor PINB           0.25000    
 The resulting pinball region                 0.30281E-07
 Initial penetration/gap is excluded.
 Bonded contact (always) is defined.

 *** NOTE ***                            CP =      12.016   TIME= 00:24:38
 Max.  Initial penetration 0 was detected between contact element 8315   
 and target element 8445.                                                
 ****************************************
  

 *** NOTE ***                            CP =      12.016   TIME= 00:24:38
 Symmetric Deformable- deformable contact pair identified by real        
 constant set 15 and contact element type 14 has been set up.  The       
 companion pair has real constant set ID 14.  Both pairs should have     
 the same behavior.                                                      
 ANSYS will keep the current pair and deactivate its companion pair,     
 resulting in asymmetric contact.                                        
 Small sliding logic is assumed
 Contact algorithm: Augmented Lagrange method
 Contact detection at: Gauss integration point
 Contact stiffness factor FKN                  10.000    
 The resulting initial contact stiffness      0.23942E+21
 Default penetration tolerance factor FTOLN   0.10000    
 The resulting penetration tolerance          0.26261E-08
 Default opening contact stiffness OPSF will be used.
 Default tangent stiffness factor FKT          1.0000    
 Default elastic slip factor SLTOL            0.50000E-02
 The resulting elastic slip tolerance         0.31213E-09
 Update contact stiffness at each iteration
 Default Max. friction stress TAUMAX          0.10000E+21
 Average contact surface length               0.62426E-07
 Average contact pair depth                   0.26261E-07
 Default pinball region factor PINB           0.25000    
 The resulting pinball region                 0.65652E-08
 Initial penetration/gap is excluded.
 Bonded contact (always) is defined.

 *** NOTE ***                            CP =      12.016   TIME= 00:24:38
 Max.  Initial penetration 0 was detected between contact element 8373   
 and target element 8259.                                                
 ****************************************
  

 *** NOTE ***                            CP =      12.016   TIME= 00:24:38
 Symmetric Deformable- deformable contact pair identified by real        
 constant set 18 and contact element type 18 has been set up.  The       
 companion pair has real constant set ID 19.  Both pairs should have     
 the same behavior.                                                      
 ANSYS will deactivate the current pair and keep its companion pair,     
 resulting in asymmetric contact.                                        
 Small sliding logic is assumed
 Contact algorithm: Augmented Lagrange method
 Contact detection at: Gauss integration point
 Contact stiffness factor FKN                  10.000    
 The resulting initial contact stiffness      0.28099E+21
 Default penetration tolerance factor FTOLN   0.10000    
 The resulting penetration tolerance          0.10320E-07
 Default opening contact stiffness OPSF will be used.
 Default tangent stiffness factor FKT          1.0000    
 Default elastic slip factor SLTOL            0.50000E-02
 The resulting elastic slip tolerance         0.75699E-09
 Update contact stiffness at each iteration
 Default Max. friction stress TAUMAX          0.10000E+21
 Average contact surface length               0.15140E-06
 Average contact pair depth                   0.10320E-06
 Default pinball region factor PINB           0.25000    
 The resulting pinball region                 0.25801E-07
 Initial penetration/gap is excluded.
 Bonded contact (always) is defined.

 *** NOTE ***                            CP =      12.016   TIME= 00:24:38
 Max.  Initial penetration 0 was detected between contact element 8702   
 and target element 8830.                                                
 ****************************************
  

 *** NOTE ***                            CP =      12.016   TIME= 00:24:38
 Symmetric Deformable- deformable contact pair identified by real        
 constant set 19 and contact element type 18 has been set up.  The       
 companion pair has real constant set ID 18.  Both pairs should have     
 the same behavior.                                                      
 ANSYS will keep the current pair and deactivate its companion pair,     
 resulting in asymmetric contact.                                        
 Small sliding logic is assumed
 Contact algorithm: Augmented Lagrange method
 Contact detection at: Gauss integration point
 Contact stiffness factor FKN                  10.000    
 The resulting initial contact stiffness      0.28099E+21
 Default penetration tolerance factor FTOLN   0.10000    
 The resulting penetration tolerance          0.26943E-08
 Default opening contact stiffness OPSF will be used.
 Default tangent stiffness factor FKT          1.0000    
 Default elastic slip factor SLTOL            0.50000E-02
 The resulting elastic slip tolerance         0.37864E-09
 Update contact stiffness at each iteration
 Default Max. friction stress TAUMAX          0.10000E+21
 Average contact surface length               0.75727E-07
 Average contact pair depth                   0.26943E-07
 Default pinball region factor PINB           0.25000    
 The resulting pinball region                 0.67357E-08
 Initial penetration/gap is excluded.
 Bonded contact (always) is defined.

 *** NOTE ***                            CP =      12.016   TIME= 00:24:38
 Max.  Initial penetration 0 was detected between contact element 8761   
 and target element 8663.                                                
 ****************************************
  

 *** NOTE ***                            CP =      12.016   TIME= 00:24:38
 Symmetric Deformable- deformable contact pair identified by real        
 constant set 22 and contact element type 22 has been set up.  The       
 companion pair has real constant set ID 23.  Both pairs should have     
 the same behavior.                                                      
 ANSYS will deactivate the current pair and keep its companion pair,     
 resulting in asymmetric contact.                                        
 Small sliding logic is assumed
 Contact algorithm: Augmented Lagrange method
 Contact detection at: Gauss integration point
 Contact stiffness factor FKN                  10.000    
 The resulting initial contact stiffness      0.26268E+21
 Default penetration tolerance factor FTOLN   0.10000    
 The resulting penetration tolerance          0.11040E-07
 Default opening contact stiffness OPSF will be used.
 Default tangent stiffness factor FKT          1.0000    
 Default elastic slip factor SLTOL            0.50000E-02
 The resulting elastic slip tolerance         0.82214E-09
 Update contact stiffness at each iteration
 Default Max. friction stress TAUMAX          0.10000E+21
 Average contact surface length               0.16443E-06
 Average contact pair depth                   0.11040E-06
 Default pinball region factor PINB           0.25000    
 The resulting pinball region                 0.27600E-07
 Initial penetration/gap is excluded.
 Bonded contact (always) is defined.

 *** NOTE ***                            CP =      12.016   TIME= 00:24:38
 Max.  Initial penetration 0 was detected between contact element 9126   
 and target element 9260.                                                
 ****************************************
  

 *** NOTE ***                            CP =      12.016   TIME= 00:24:38
 Symmetric Deformable- deformable contact pair identified by real        
 constant set 23 and contact element type 22 has been set up.  The       
 companion pair has real constant set ID 22.  Both pairs should have     
 the same behavior.                                                      
 ANSYS will keep the current pair and deactivate its companion pair,     
 resulting in asymmetric contact.                                        
 Small sliding logic is assumed
 Contact algorithm: Augmented Lagrange method
 Contact detection at: Gauss integration point
 Contact stiffness factor FKN                  10.000    
 The resulting initial contact stiffness      0.26268E+21
 Default penetration tolerance factor FTOLN   0.10000    
 The resulting penetration tolerance          0.26111E-08
 Default opening contact stiffness OPSF will be used.
 Default tangent stiffness factor FKT          1.0000    
 Default elastic slip factor SLTOL            0.50000E-02
 The resulting elastic slip tolerance         0.36457E-09
 Update contact stiffness at each iteration
 Default Max. friction stress TAUMAX          0.10000E+21
 Average contact surface length               0.72915E-07
 Average contact pair depth                   0.26111E-07
 Default pinball region factor PINB           0.25000    
 The resulting pinball region                 0.65279E-08
 Initial penetration/gap is excluded.
 Bonded contact (always) is defined.

 *** NOTE ***                            CP =      12.016   TIME= 00:24:38
 Max.  Initial penetration 0 was detected between contact element 9173   
 and target element 9120.                                                
 ****************************************
  

  
 *************************************************
  SUMMARY FOR CONTACT PAIR IDENTIFIED BY REAL CONSTANT SET          12

 *** NOTE ***                            CP =      12.750   TIME= 00:24:39
 Contact pair is inactive.                                               
  
 *************************************************
  SUMMARY FOR CONTACT PAIR IDENTIFIED BY REAL CONSTANT SET          13
 Max.  Penetration of 0 has been detected between contact element 8177   
 and target element 8066.                                                
 For total 39 contact elements, there are 39 elements are in contact.    
 There are 39 elements are in sticking.                                  
 Contacting area 1.18E-13.                                               
 Max.  Pinball distance 6.109713681E-09.                                 
 One of the contact searching regions contains at least 10 target        
 elements.                                                               
 Max.  Pressure/force 1.447354499E-03.                                   
 Max.  Normal stiffness 2.610423226E+19.                                 
 Min.  Normal stiffness 2.610423226E+19.                                 
 Max.  Tangential stiffness 1.957817419E+18.                             
 Min.  Tangential stiffness 1.957817419E+18.                             
 *************************************************
  
 *************************************************
  SUMMARY FOR CONTACT PAIR IDENTIFIED BY REAL CONSTANT SET          14

 *** NOTE ***                            CP =      12.750   TIME= 00:24:39
 Contact pair is inactive.                                               
  
 *************************************************
  SUMMARY FOR CONTACT PAIR IDENTIFIED BY REAL CONSTANT SET          15
 Max.  Penetration of 0 has been detected between contact element 8373   
 and target element 8259.                                                
 For total 39 contact elements, there are 39 elements are in contact.    
 There are 39 elements are in sticking.                                  
 Contacting area 1.18E-13.                                               
 Max.  Pinball distance 6.565238002E-09.                                 
 One of the contact searching regions contains at least 11 target        
 elements.                                                               
 Max.  Pressure/force 1.327487618E-03.                                   
 Max.  Normal stiffness 2.39423342E+19.                                  
 Min.  Normal stiffness 2.39423342E+19.                                  
 Max.  Tangential stiffness 1.795675065E+18.                             
 Min.  Tangential stiffness 1.795675065E+18.                             
 *************************************************
  
 *************************************************
  SUMMARY FOR CONTACT PAIR IDENTIFIED BY REAL CONSTANT SET          18

 *** NOTE ***                            CP =      12.750   TIME= 00:24:39
 Contact pair is inactive.                                               
  
 *************************************************
  SUMMARY FOR CONTACT PAIR IDENTIFIED BY REAL CONSTANT SET          19
 Max.  Penetration of 0 has been detected between contact element 8761   
 and target element 8663.                                                
 For total 52 contact elements, there are 52 elements are in contact.    
 There are 52 elements are in sticking.                                  
 Contacting area 1.21748E-13.                                            
 Max.  Pinball distance 6.735686122E-09.                                 
 One of the contact searching regions contains at least 12 target        
 elements.                                                               
 Max.  Pressure/force 1.889949392E-03.                                   
 Max.  Normal stiffness 2.809944716E+19.                                 
 Min.  Normal stiffness 2.809944716E+19.                                 
 Max.  Tangential stiffness 2.107458537E+18.                             
 Min.  Tangential stiffness 2.107458537E+18.                             
 *************************************************
  
 *************************************************
  SUMMARY FOR CONTACT PAIR IDENTIFIED BY REAL CONSTANT SET          22

 *** NOTE ***                            CP =      12.750   TIME= 00:24:39
 Contact pair is inactive.                                               
  
 *************************************************
  SUMMARY FOR CONTACT PAIR IDENTIFIED BY REAL CONSTANT SET          23
 Max.  Penetration of 0 has been detected between contact element 9173   
 and target element 9120.                                                
 For total 54 contact elements, there are 54 elements are in contact.    
 There are 54 elements are in sticking.                                  
 Contacting area 1.21748E-13.                                            
 Max.  Pinball distance 6.527864674E-09.                                 
 One of the contact searching regions contains at least 10 target        
 elements.                                                               
 Max.  Pressure/force 1.701180123E-03.                                   
 Max.  Normal stiffness 2.626848939E+19.                                 
 Min.  Normal stiffness 2.626848939E+19.                                 
 Max.  Tangential stiffness 1.970136704E+18.                             
 Min.  Tangential stiffness 1.970136704E+18.                             
 *************************************************


                         ***********  PRECISE MASS SUMMARY  ***********

   TOTAL RIGID BODY MASS MATRIX ABOUT ORIGIN
               Translational mass               |   Coupled translational/rotational mass
        0.11535E-13    0.0000        0.0000     |     0.0000       0.10411E-20   0.75232E-36
         0.0000       0.11535E-13    0.0000     |   -0.10411E-20    0.0000       0.18808E-36
         0.0000        0.0000       0.11535E-13 |   -0.75232E-36   0.18808E-36    0.0000    
     ------------------------------------------ | ------------------------------------------
                                                |         Rotational mass (inertia)
                                                |    0.16400E-25   0.35807E-32  -0.24999E-40
                                                |    0.35807E-32   0.16400E-25  -0.16237E-39
                                                |   -0.25022E-40  -0.16228E-39   0.32514E-25

   TOTAL MASS = 0.11535E-13
     The mass principal axes coincide with the global Cartesian axes

   CENTER OF MASS (X,Y,Z)=   0.16305E-22  -0.65221E-22   0.90252E-07

   TOTAL INERTIA ABOUT CENTER OF MASS
        0.16306E-25   0.35807E-32  -0.24982E-40
        0.35807E-32   0.16306E-25  -0.16244E-39
       -0.24982E-40  -0.16244E-39   0.32514E-25
     The inertia principal axes coincide with the global Cartesian axes


  *** MASS SUMMARY BY ELEMENT TYPE ***

  TYPE      MASS
     1  0.109177E-13
     2  0.764280E-16
     3  0.764280E-16
     4  0.764280E-16
     5  0.764280E-16
     6  0.778747E-16
     7  0.778747E-16
     8  0.778747E-16
     9  0.778747E-16

 Range of element maximum matrix coefficients in global coordinates
 Maximum = 187899.816 at element 3541.                                   
 Minimum = 665.080115 at element 9447.                                   

   *** ELEMENT MATRIX FORMULATION TIMES
     TYPE    NUMBER   ENAME      TOTAL CP  AVE CP

        1      3308  SOLID187      0.312   0.000094
        2        54  SOLID186      0.000   0.000000
        3        54  SOLID186      0.000   0.000000
        4        48  SOLID186      0.000   0.000000
        5        48  SOLID186      0.000   0.000000
        6       223  SOLID187      0.031   0.000140
        7       230  SOLID187      0.000   0.000000
        8       242  SOLID187      0.031   0.000129
        9       243  SOLID187      0.031   0.000129
       10        99  CONTA174      0.016   0.000158
       11        99  TARGE170      0.000   0.000000
       12        98  CONTA174      0.016   0.000159
       13        98  TARGE170      0.000   0.000000
       14        98  CONTA174      0.047   0.000478
       15        98  TARGE170      0.000   0.000000
       16        96  CONTA174      0.031   0.000326
       17        96  TARGE170      0.000   0.000000
       18       111  CONTA174      0.062   0.000563
       19       111  TARGE170      0.000   0.000000
       20       107  CONTA174      0.016   0.000146
       21       107  TARGE170      0.000   0.000000
       22       101  CONTA174      0.016   0.000155
       23       101  TARGE170      0.000   0.000000
       24       113  CONTA174      0.016   0.000138
       25       113  TARGE170      0.000   0.000000
       26      1394  TRANS126      0.016   0.000011
 Time at end of element matrix formulation CP = 12.765625.               

 ALL CURRENT ANSYS DATA WRITTEN TO FILE NAME= file.rdb
  FOR POSSIBLE RESUME FROM THIS POINT
     FORCE CONVERGENCE VALUE  =  0.1215E-15  CRITERION=  0.1000E-02
     CURRENT CONVERGENCE VALUE=   0.000      CRITERION=   0.000    

 DISTRIBUTED SPARSE MATRIX DIRECT SOLVER.
  Number of equations =       31389,    Maximum wavefront =    640

  Local memory allocated for solver              =    115.115 MB
  Local memory required for in-core solution     =     95.089 MB
  Local memory required for out-of-core solution =     44.263 MB

  Total memory allocated for solver              =    230.843 MB
  Total memory required for in-core solution     =    190.897 MB
  Total memory required for out-of-core solution =     88.241 MB

 *** NOTE ***                            CP =      13.344   TIME= 00:24:40
 The Distributed Sparse Matrix Solver is currently running in the        
 in-core memory mode.  This memory mode uses the most amount of memory   
 in order to avoid using the hard drive as much as possible, which most  
 often results in the fastest solution time.  This mode is recommended   
 if enough physical memory is present to accommodate all of the solver   
 data.                                                                   

 *** WARNING ***                         CP =      13.344   TIME= 00:24:40
 Pivoting has been activated for the Distributed Sparse Matrix Solver .  
 The memory required may greatly exceed the predicted amount.  In that   
 event, use the DSPOPTION command to change the memory mode and/or       
 memory size used by the Distributed Sparse Matrix Solver.               

 *** NOTE ***                            CP =      13.344   TIME= 00:24:40
 The system matrix is unsymmetric.                                       
 curEqn=  15702  totEqn=  15702 Job CP sec=     14.094
      Factor Done=  99% Factor Wall sec=      0.361 rate=    5795.3 Mflops
 Distributed sparse solver maximum pivot= 229626.692 at node 8716 UZ.    
 Distributed sparse solver minimum pivot= 9.97254286 at node 374 UZ.     
 Distributed sparse solver minimum pivot in absolute value= 9.97254286   
 at node 374 UZ.                                                         
     DISP CONVERGENCE VALUE   =  0.1700E-21  CRITERION=  0.5000E-11 <<< CONVERGED
    EQUIL ITER   1 COMPLETED.  NEW TRIANG MATRIX.  MAX DOF INC=  0.1000    
     FORCE CONVERGENCE VALUE  =  0.6732E-11  CRITERION=  0.1000E-02 <<< CONVERGED

 *** WARNING ***                         CP =      14.672   TIME= 00:24:42
 A reference force value times the tolerance is used by the              
 Newton-Raphson method for checking convergence.  The calculated         
 reference FORCE CONVERGENCE VALUE = 6.731677199E-12 is less than a      
 threshold.  This threshold defaults to 1.0 or is specified as MINREF    
 on the CNVTOL command.  Check results carefully.                        
     CURRENT CONVERGENCE VALUE=   0.000      CRITERION=   0.000     <<< CONVERGED
    >>> SOLUTION CONVERGED AFTER EQUILIBRIUM ITERATION   1
     FORCE CONVERGENCE VALUE  =  0.6732E-11  CRITERION=  0.1000E-02 <<< CONVERGED
     CURRENT CONVERGENCE VALUE=   0.000      CRITERION=   0.000     <<< CONVERGED
    >>> SOLUTION CONVERGED AFTER EQUILIBRIUM ITERATION   1

   *** ELEMENT RESULT CALCULATION TIMES
     TYPE    NUMBER   ENAME      TOTAL CP  AVE CP

        1      3308  SOLID187      0.281   0.000085
        2        54  SOLID186      0.000   0.000000
        3        54  SOLID186      0.000   0.000000
        4        48  SOLID186      0.016   0.000326
        5        48  SOLID186      0.000   0.000000
        6       223  SOLID187      0.016   0.000070
        7       230  SOLID187      0.000   0.000000
        8       242  SOLID187      0.016   0.000065
        9       243  SOLID187      0.016   0.000064
       10        99  CONTA174      0.000   0.000000
       12        98  CONTA174      0.000   0.000000
       14        98  CONTA174      0.016   0.000159
       16        96  CONTA174      0.000   0.000000
       18       111  CONTA174      0.000   0.000000
       20       107  CONTA174      0.000   0.000000
       22       101  CONTA174      0.000   0.000000
       24       113  CONTA174      0.016   0.000138
       26      1394  TRANS126      0.016   0.000011

   *** NODAL LOAD CALCULATION TIMES
     TYPE    NUMBER   ENAME      TOTAL CP  AVE CP

        1      3308  SOLID187      0.094   0.000028
        2        54  SOLID186      0.000   0.000000
        3        54  SOLID186      0.000   0.000000
        4        48  SOLID186      0.000   0.000000
        5        48  SOLID186      0.000   0.000000
        6       223  SOLID187      0.000   0.000000
        7       230  SOLID187      0.000   0.000000
        8       242  SOLID187      0.000   0.000000
        9       243  SOLID187      0.000   0.000000
       10        99  CONTA174      0.000   0.000000
       12        98  CONTA174      0.000   0.000000
       14        98  CONTA174      0.000   0.000000
       16        96  CONTA174      0.016   0.000163
       18       111  CONTA174      0.000   0.000000
       20       107  CONTA174      0.000   0.000000
       22       101  CONTA174      0.000   0.000000
       24       113  CONTA174      0.000   0.000000
       26      1394  TRANS126      0.031   0.000022
 *** LOAD STEP     1   SUBSTEP     1  COMPLETED.    CUM ITER =      1
 *** TIME =   1.00000         TIME INC =   1.00000    


 *** ANSYS BINARY FILE STATISTICS
  BUFFER SIZE USED= 16384
        0.188 MB WRITTEN ON ELEMENT MATRIX FILE: file0.emat
       10.812 MB WRITTEN ON ELEMENT SAVED DATA FILE: file0.esav
       12.750 MB WRITTEN ON ASSEMBLED MATRIX FILE: file0.full
        2.188 MB WRITTEN ON RESULTS FILE: file0.rst
 *************** Write FE CONNECTORS *********

 WRITE OUT CONSTRAINT EQUATIONS TO FILE= file.ce                                                                                                                                                                                                                                                             
 ****************************************************
 *************** FINISHED SOLVE FOR LS 1 *************
 ****************************************************
 ******************* SOLVE FOR LS 2 OF 100 ****************

 PRINTOUT RESUMED BY /GOP

 USE AUTOMATIC TIME STEPPING THIS LOAD STEP

 USE       1 SUBSTEPS INITIALLY THIS LOAD STEP FOR ALL  DEGREES OF FREEDOM
 FOR AUTOMATIC TIME STEPPING:
   USE     10 SUBSTEPS AS A MAXIMUM
[...]
      ITEM     FREQUENCY   COMPONENT
       ALL       NONE               
      NSOL        ALL               
      RSOL        ALL               
      EANG        ALL               
      ETMP        ALL               
      VENG        ALL               
      STRS        ALL               
      EPEL        ALL               
      EPPL        ALL               
      CONT        ALL               


     FORCE CONVERGENCE VALUE  =  0.4045E-10  CRITERION=  0.1000E-02
     CURRENT CONVERGENCE VALUE=   0.000      CRITERION=   0.000    
     DISP CONVERGENCE VALUE   =  0.5112E-10  CRITERION=  0.5000E-11
    EQUIL ITER   1 COMPLETED.  NEW TRIANG MATRIX.  MAX DOF INC= -0.1000    
     FORCE CONVERGENCE VALUE  =  0.6715E-11  CRITERION=  0.1000E-02 <<< CONVERGED

 *** WARNING ***                         CP =     546.734   TIME= 00:34:28
 A reference force value times the tolerance is used by the              
 Newton-Raphson method for checking convergence.  The calculated         
 reference FORCE CONVERGENCE VALUE = 1.189022279E-09 is less than a      
 threshold.  This threshold defaults to 1.0 or is specified as MINREF    
 on the CNVTOL command.  Check results carefully.                        
     CURRENT CONVERGENCE VALUE=   0.000      CRITERION=   0.000     <<< CONVERGED
     DISP CONVERGENCE VALUE   =  0.8486E-11  CRITERION=  0.5000E-11
    EQUIL ITER   2 COMPLETED.  NEW TRIANG MATRIX.  MAX DOF INC= -0.8486E-11
     FORCE CONVERGENCE VALUE  =  0.4507E-14  CRITERION=  0.1000E-02 <<< CONVERGED
     CURRENT CONVERGENCE VALUE=   0.000      CRITERION=   0.000     <<< CONVERGED
     DISP CONVERGENCE VALUE   =  0.5698E-14  CRITERION=  0.5000E-11 <<< CONVERGED
    EQUIL ITER   3 COMPLETED.  NEW TRIANG MATRIX.  MAX DOF INC = -0.5698E-14
    >>> SOLUTION CONVERGED AFTER EQUILIBRIUM ITERATION   3
    >>> SOLUTION CONVERGED AFTER EQUILIBRIUM ITERATION   3
 *** LOAD STEP    98   SUBSTEP     1  COMPLETED.    CUM ITER =    430
 *** TIME =   98.0000         TIME INC =   1.00000    
 ****************************************************
 *************** FINISHED SOLVE FOR LS 98 *************
 ****************************************************
 ******************* SOLVE FOR LS 99 OF 100 ****************

 PRINTOUT RESUMED BY /GOP

 USE AUTOMATIC TIME STEPPING THIS LOAD STEP

 USE       1 SUBSTEPS INITIALLY THIS LOAD STEP FOR ALL  DEGREES OF FREEDOM
 FOR AUTOMATIC TIME STEPPING:
   USE     10 SUBSTEPS AS A MAXIMUM
   USE      1 SUBSTEPS AS A MINIMUM

 TIME=  99.000    

 ERASE THE CURRENT DATABASE OUTPUT CONTROL TABLE.


 WRITE ALL  ITEMS TO THE DATABASE WITH A FREQUENCY OF NONE
   FOR ALL APPLICABLE ENTITIES

 WRITE NSOL ITEMS TO THE DATABASE WITH A FREQUENCY OF ALL 
   FOR ALL APPLICABLE ENTITIES

 WRITE RSOL ITEMS TO THE DATABASE WITH A FREQUENCY OF ALL 
   FOR ALL APPLICABLE ENTITIES

 WRITE EANG ITEMS TO THE DATABASE WITH A FREQUENCY OF ALL 
   FOR ALL APPLICABLE ENTITIES

 WRITE ETMP ITEMS TO THE DATABASE WITH A FREQUENCY OF ALL 
   FOR ALL APPLICABLE ENTITIES

 WRITE VENG ITEMS TO THE DATABASE WITH A FREQUENCY OF ALL 
   FOR ALL APPLICABLE ENTITIES

 WRITE STRS ITEMS TO THE DATABASE WITH A FREQUENCY OF ALL 
   FOR ALL APPLICABLE ENTITIES

 WRITE EPEL ITEMS TO THE DATABASE WITH A FREQUENCY OF ALL 
   FOR ALL APPLICABLE ENTITIES

 WRITE EPPL ITEMS TO THE DATABASE WITH A FREQUENCY OF ALL 
   FOR ALL APPLICABLE ENTITIES

 WRITE CONT ITEMS TO THE DATABASE WITH A FREQUENCY OF ALL 
   FOR ALL APPLICABLE ENTITIES

 *****  ANSYS SOLVE    COMMAND  *****

 *** NOTE ***                            CP =     549.078   TIME= 00:34:30
 The Solution Control Option is only valid for single field structural,  
 single field thermal, single field diffusion, coupled                   
 thermal-diffusion analyses and coupled-field analyses with structural   
 degrees of freedom.  The SOLCONTROL,ON command (if present) has been    
 de-activated.                                                           

 *** NOTE ***                            CP =     549.078   TIME= 00:34:30
 This nonlinear analysis defaults to using the full Newton-Raphson       
 solution procedure.  This can be modified using the NROPT command.      

 *** ANSYS - ENGINEERING ANALYSIS SYSTEM  RELEASE 2020 R1          20.1     ***
 DISTRIBUTED ANSYS Mechanical Enterprise                       

 20120530  VERSION=WINDOWS x64   00:34:30  APR 05, 2020 CP=    549.125

                                                                               



                      L O A D   S T E P   O P T I O N S

   LOAD STEP NUMBER. . . . . . . . . . . . . . . .    99
   TIME AT END OF THE LOAD STEP. . . . . . . . . .  99.000    
   AUTOMATIC TIME STEPPING . . . . . . . . . . . .    ON
      INITIAL NUMBER OF SUBSTEPS . . . . . . . . .     1
      MAXIMUM NUMBER OF SUBSTEPS . . . . . . . . .    10
      MINIMUM NUMBER OF SUBSTEPS . . . . . . . . .     1
   MAXIMUM NUMBER OF EQUILIBRIUM ITERATIONS. . . .    25
   STEP CHANGE BOUNDARY CONDITIONS . . . . . . . .    NO
   TERMINATE ANALYSIS IF NOT CONVERGED . . . . . .YES (EXIT)  
   CONVERGENCE CONTROLS
      LABEL   REFERENCE    TOLERANCE  NORM     MINREF
       U      0.1000E-08   0.5000E-02   0     -1.000    
   PRINT OUTPUT CONTROLS . . . . . . . . . . . . .NO PRINTOUT
   DATABASE OUTPUT CONTROLS
      ITEM     FREQUENCY   COMPONENT
       ALL       NONE               
      NSOL        ALL               
      RSOL        ALL               
      EANG        ALL               
      ETMP        ALL               
      VENG        ALL               
      STRS        ALL               
      EPEL        ALL               
      EPPL        ALL               
      CONT        ALL               


     FORCE CONVERGENCE VALUE  =  0.2694E-10  CRITERION=  0.1000E-02
     CURRENT CONVERGENCE VALUE=   0.000      CRITERION=   0.000    
     DISP CONVERGENCE VALUE   =  0.3405E-10  CRITERION=  0.5000E-11
    EQUIL ITER   1 COMPLETED.  NEW TRIANG MATRIX.  MAX DOF INC= -0.1000    
     FORCE CONVERGENCE VALUE  =  0.6732E-11  CRITERION=  0.1000E-02 <<< CONVERGED

 *** WARNING ***                         CP =     550.625   TIME= 00:34:32
 A reference force value times the tolerance is used by the              
 Newton-Raphson method for checking convergence.  The calculated         
 reference FORCE CONVERGENCE VALUE = 6.731677199E-12 is less than a      
 threshold.  This threshold defaults to 1.0 or is specified as MINREF    
 on the CNVTOL command.  Check results carefully.                        
     CURRENT CONVERGENCE VALUE=   0.000      CRITERION=   0.000     <<< CONVERGED
     DISP CONVERGENCE VALUE   =  0.8507E-11  CRITERION=  0.5000E-11
    EQUIL ITER   2 COMPLETED.  NEW TRIANG MATRIX.  MAX DOF INC= -0.8507E-11
     FORCE CONVERGENCE VALUE  =  0.1130E-14  CRITERION=  0.1000E-02 <<< CONVERGED
     CURRENT CONVERGENCE VALUE=   0.000      CRITERION=   0.000     <<< CONVERGED
     DISP CONVERGENCE VALUE   =  0.1427E-14  CRITERION=  0.5000E-11 <<< CONVERGED
    EQUIL ITER   3 COMPLETED.  NEW TRIANG MATRIX.  MAX DOF INC = -0.1427E-14
    >>> SOLUTION CONVERGED AFTER EQUILIBRIUM ITERATION   3
    >>> SOLUTION CONVERGED AFTER EQUILIBRIUM ITERATION   3
 *** LOAD STEP    99   SUBSTEP     1  COMPLETED.    CUM ITER =    433
 *** TIME =   99.0000         TIME INC =   1.00000    
 ****************************************************
 *************** FINISHED SOLVE FOR LS 99 *************
 ****************************************************
 ******************* SOLVE FOR LS 100 OF 100 ****************

 PRINTOUT RESUMED BY /GOP

 USE AUTOMATIC TIME STEPPING THIS LOAD STEP

 USE       1 SUBSTEPS INITIALLY THIS LOAD STEP FOR ALL  DEGREES OF FREEDOM
 FOR AUTOMATIC TIME STEPPING:
   USE     10 SUBSTEPS AS A MAXIMUM
   USE      1 SUBSTEPS AS A MINIMUM

 TIME=  100.00    

 ERASE THE CURRENT DATABASE OUTPUT CONTROL TABLE.


 WRITE ALL  ITEMS TO THE DATABASE WITH A FREQUENCY OF NONE
   FOR ALL APPLICABLE ENTITIES

 WRITE NSOL ITEMS TO THE DATABASE WITH A FREQUENCY OF ALL 
   FOR ALL APPLICABLE ENTITIES

 WRITE RSOL ITEMS TO THE DATABASE WITH A FREQUENCY OF ALL 
   FOR ALL APPLICABLE ENTITIES

 WRITE EANG ITEMS TO THE DATABASE WITH A FREQUENCY OF ALL 
   FOR ALL APPLICABLE ENTITIES

 WRITE ETMP ITEMS TO THE DATABASE WITH A FREQUENCY OF ALL 
   FOR ALL APPLICABLE ENTITIES

 WRITE VENG ITEMS TO THE DATABASE WITH A FREQUENCY OF ALL 
   FOR ALL APPLICABLE ENTITIES

 WRITE STRS ITEMS TO THE DATABASE WITH A FREQUENCY OF ALL 
   FOR ALL APPLICABLE ENTITIES

 WRITE EPEL ITEMS TO THE DATABASE WITH A FREQUENCY OF ALL 
   FOR ALL APPLICABLE ENTITIES

 WRITE EPPL ITEMS TO THE DATABASE WITH A FREQUENCY OF ALL 
   FOR ALL APPLICABLE ENTITIES

 WRITE CONT ITEMS TO THE DATABASE WITH A FREQUENCY OF ALL 
   FOR ALL APPLICABLE ENTITIES

 *****  ANSYS SOLVE    COMMAND  *****

 *** NOTE ***                            CP =     553.297   TIME= 00:34:35
 The Solution Control Option is only valid for single field structural,  
 single field thermal, single field diffusion, coupled                   
 thermal-diffusion analyses and coupled-field analyses with structural   
 degrees of freedom.  The SOLCONTROL,ON command (if present) has been    
 de-activated.                                                           

 *** NOTE ***                            CP =     553.297   TIME= 00:34:35
 This nonlinear analysis defaults to using the full Newton-Raphson       
 solution procedure.  This can be modified using the NROPT command.      

 *** ANSYS - ENGINEERING ANALYSIS SYSTEM  RELEASE 2020 R1          20.1     ***
 DISTRIBUTED ANSYS Mechanical Enterprise                       

 20120530  VERSION=WINDOWS x64   00:34:35  APR 05, 2020 CP=    553.359

                                                                               



                      L O A D   S T E P   O P T I O N S

   LOAD STEP NUMBER. . . . . . . . . . . . . . . .   100
   TIME AT END OF THE LOAD STEP. . . . . . . . . .  100.00    
   AUTOMATIC TIME STEPPING . . . . . . . . . . . .    ON
      INITIAL NUMBER OF SUBSTEPS . . . . . . . . .     1
      MAXIMUM NUMBER OF SUBSTEPS . . . . . . . . .    10
      MINIMUM NUMBER OF SUBSTEPS . . . . . . . . .     1
   MAXIMUM NUMBER OF EQUILIBRIUM ITERATIONS. . . .    25
   STEP CHANGE BOUNDARY CONDITIONS . . . . . . . .    NO
   TERMINATE ANALYSIS IF NOT CONVERGED . . . . . .YES (EXIT)  
   CONVERGENCE CONTROLS
      LABEL   REFERENCE    TOLERANCE  NORM     MINREF
       U      0.1000E-08   0.5000E-02   0     -1.000    
   PRINT OUTPUT CONTROLS . . . . . . . . . . . . .NO PRINTOUT
   DATABASE OUTPUT CONTROLS
      ITEM     FREQUENCY   COMPONENT
       ALL       NONE               
      NSOL        ALL               
      RSOL        ALL               
      EANG        ALL               
      ETMP        ALL               
      VENG        ALL               
      STRS        ALL               
      EPEL        ALL               
      EPPL        ALL               
      CONT        ALL               


     FORCE CONVERGENCE VALUE  =  0.1347E-10  CRITERION=  0.1000E-02
     CURRENT CONVERGENCE VALUE=   0.000      CRITERION=   0.000    
     DISP CONVERGENCE VALUE   =  0.1702E-10  CRITERION=  0.5000E-11
    EQUIL ITER   1 COMPLETED.  NEW TRIANG MATRIX.  MAX DOF INC= -0.1000    
     FORCE CONVERGENCE VALUE  =  0.6733E-11  CRITERION=  0.1000E-02 <<< CONVERGED

 *** WARNING ***                         CP =     554.797   TIME= 00:34:36
 A reference force value times the tolerance is used by the              
 Newton-Raphson method for checking convergence.  The calculated         
 reference FORCE CONVERGENCE VALUE = 3.957066828E-10 is less than a      
 threshold.  This threshold defaults to 1.0 or is specified as MINREF    
 on the CNVTOL command.  Check results carefully.                        
     CURRENT CONVERGENCE VALUE=   0.000      CRITERION=   0.000     <<< CONVERGED
     DISP CONVERGENCE VALUE   =  0.8508E-11  CRITERION=  0.5000E-11
    EQUIL ITER   2 COMPLETED.  NEW TRIANG MATRIX.  MAX DOF INC= -0.8508E-11
     FORCE CONVERGENCE VALUE  =  0.7380E-17  CRITERION=  0.1000E-02 <<< CONVERGED
     CURRENT CONVERGENCE VALUE=   0.000      CRITERION=   0.000     <<< CONVERGED
     DISP CONVERGENCE VALUE   =  0.8518E-21  CRITERION=  0.5000E-11 <<< CONVERGED
    EQUIL ITER   3 COMPLETED.  NEW TRIANG MATRIX.  MAX DOF INC =  0.8518E-21
    >>> SOLUTION CONVERGED AFTER EQUILIBRIUM ITERATION   3
    >>> SOLUTION CONVERGED AFTER EQUILIBRIUM ITERATION   3
 *** LOAD STEP   100   SUBSTEP     1  COMPLETED.    CUM ITER =    436
 *** TIME =   100.000         TIME INC =   1.00000    
 ****************************************************
 *************** FINISHED SOLVE FOR LS 100 *************

 *GET  _WALLASOL  FROM  ACTI  ITEM=TIME WALL  VALUE= 0.577500000    

 PRINTOUT RESUMED BY /GOP

 FINISH SOLUTION PROCESSING


 ***** ROUTINE COMPLETED *****  CP =       560.359



 *** ANSYS - ENGINEERING ANALYSIS SYSTEM  RELEASE 2020 R1          20.1     ***
 DISTRIBUTED ANSYS Mechanical Enterprise                       

 20120530  VERSION=WINDOWS x64   00:34:43  APR 05, 2020 CP=    560.359

                                                                               



          ***** ANSYS RESULTS INTERPRETATION (POST1) *****

 *** NOTE ***                            CP =     560.359   TIME= 00:34:43
 The model contains an element type ( TRANS126 ) that operates entirely  
 in the nodal coordinate system.  Viewing nodal displacements or forces  
 in other than the nodal coordinate system may be invalid.  See the      
 elements manual description for more information.                       

 *** NOTE ***                            CP =     560.359   TIME= 00:34:43
 Reading results into the database (SET command) will update the current 
 displacement and force boundary conditions in the database with the     
 values from the results file for that load set.  Note that any          
 subsequent solutions will use these values unless action is taken to    
 either SAVE the current values or not overwrite them (/EXIT,NOSAVE).    

 Set Encoding of XML File to:ISO-8859-1

 Set Output of XML File to:
     PARM,     ,     ,     ,     ,     ,     ,     ,     ,     ,     ,     ,
         ,     ,     ,     ,     ,     ,     ,

 DATABASE WRITTEN ON FILE  parm.xml                                                                                                                                                                                                                                                            

 EXIT THE ANSYS POST1 DATABASE PROCESSOR


 ***** ROUTINE COMPLETED *****  CP =       560.531



 PRINTOUT RESUMED BY /GOP

 *GET  _WALLDONE  FROM  ACTI  ITEM=TIME WALL  VALUE= 0.578611111    

 PARAMETER _PREPTIME =     5.000000000    

 PARAMETER _SOLVTIME =     602.0000000    

 PARAMETER _POSTTIME =     4.000000000    

 PARAMETER _TOTALTIM =     611.0000000    

 *GET  _DLBRATIO  FROM  ACTI  ITEM=SOLU DLBR  VALUE=  1.20776526    

 *GET  _COMBTIME  FROM  ACTI  ITEM=SOLU COMB  VALUE=  3.77198770    
 --- Number of total nodes = 11941
 --- Number of total elements = 7490
 --- Element load balance ratio = 1.20776526
 --- Time to combine distributed files = 3.7719877

 EXIT ANSYS WITHOUT SAVING DATABASE


 NUMBER OF WARNING MESSAGES ENCOUNTERED=        104
 NUMBER OF ERROR   MESSAGES ENCOUNTERED=          0

 *** NOTE ***                            CP =     560.609   TIME= 00:34:43
 The solution for the current simulation was performed using 2 cores.    
 The parallel performance of this simulation on this hardware indicates  
 that this simulation would benefit from using additional CPU cores.     
 Consider using more CPU cores, which may require additional HPC         
 licenses, when running this simulation again on the same hardware.      

+--------- D I S T R I B U T E D   A N S Y S   S T A T I S T I C S ------------+

Release: 2020 R1            Build: 20.1       Update: UP20191203   Platform: WINDOWS x64 
Date Run: 04/05/2020   Time: 00:34     Process ID: 13152
Operating System: Windows 10  (Build: 18363)

Processor Model: Intel(R) Core(TM) i5-6360U CPU @ 2.00GHz

Compiler: Intel(R) FORTRAN Compiler Version 19.0.0  (Build: 20190206)
          Intel(R) C/C++ Compiler Version 19.0.0  (Build: 20190206)
          Intel(R) Math Kernel Library Version 2019.0.3 Product Build 20190125

Number of machines requested            :    1
Total number of cores available         :    2
Number of physical cores available      :    2
Number of processes requested           :    2
Number of threads per process requested :    1
Total number of cores requested         :    2 (Distributed Memory Parallel)               
MPI Type: INTELMPI
MPI Version: Intel(R) MPI Library 2018 Update 3 for Windows* OS


GPU Acceleration: Not Requested

Job Name: file0
Input File: dummy.dat

  Core                Machine Name   Working Directory
 -----------------------------------------------------
     0             DESKTOP-H2RNGL6   C:\Users\Akash Levy\Documents\NEM-Relay-CAD\_ProjectScratch\Scr84B0
     1             DESKTOP-H2RNGL6   C:\Users\Akash Levy\Documents\NEM-Relay-CAD\_ProjectScratch\Scr84B0
 
Latency time from master to core     1 =    3.285 microseconds
 
Communication speed from master to core     1 =  1196.81 MB/sec

Total CPU time for main thread                    :      554.9 seconds
Total CPU time summed for all threads             :      560.6 seconds

Elapsed time spent obtaining a license            :       22.6 seconds
Elapsed time spent pre-processing model (/PREP7)  :        5.9 seconds
Elapsed time spent solution - preprocessing       :        7.4 seconds
Elapsed time spent computing solution             :      586.2 seconds
Elapsed time spent solution - postprocessing      :        3.8 seconds
Elapsed time spent post-processing model (/POST1) :        0.2 seconds
 
Equation solver used                              :            Sparse (unsymmetric)
Equation solver computational rate                :       20.0 Gflops
Equation solver effective I/O rate                :        6.8 GB/sec

Maximum total memory used                         :      335.0 MB
Maximum total memory allocated                    :     3136.0 MB
Total physical memory available                   :          4 GB

Total amount of I/O written to disk               :       19.4 GB
Total amount of I/O read from disk                :       43.5 GB

+------ E N D   D I S T R I B U T E D   A N S Y S   S T A T I S T I C S -------+


 *---------------------------------------------------------------------------*
 |                                                                           |
 |                       DISTRIBUTED ANSYS RUN COMPLETED                     |
 |                                                                           |
 |---------------------------------------------------------------------------|
 |                                                                           |
 | Ansys 2020 R1               Build 20.1         UP20191203     WINDOWS x64 |
 |                                                                           |
 |---------------------------------------------------------------------------|
 |                                                                           |
 | Database Requested(-db)  1024 MB    Scratch Memory Requested      1024 MB |
 | Maximum Database Used      11 MB    Maximum Scratch Memory Used    157 MB |
 |                                                                           |
 |---------------------------------------------------------------------------|
 |                                                                           |
 |        CP Time      (sec) =        560.594       Time  =  00:34:43        |
 |        Elapsed Time (sec) =        636.000       Date  =  04/05/2020      |
 |                                                                           |
 *---------------------------------------------------------------------------*
