
 ANSYS Mechanical Enterprise                       


 *------------------------------------------------------------------*
 |                                                                  |
 |   W E L C O M E   T O   T H E   A N S Y S (R)  P R O G R A M     |
 |                                                                  |
 *------------------------------------------------------------------*




 ***************************************************************
 *            ANSYS 2020 R1          LEGAL NOTICES             *
 ***************************************************************
 *                                                             *
 * Copyright 1971-2020 ANSYS, Inc.  All rights reserved.       *
 * Unauthorized use, distribution or duplication is            *
 * prohibited.                                                 *
 *                                                             *
 * Ansys is a registered trademark of ANSYS, Inc. or its       *
 * subsidiaries in the United States or other countries.       *
 * See the ANSYS, Inc. online documentation or the ANSYS, Inc. *
 * documentation CD or online help for the complete Legal      *
 * Notice.                                                     *
 *                                                             *
 ***************************************************************
 *                                                             *
 * THIS ANSYS SOFTWARE PRODUCT AND PROGRAM DOCUMENTATION       *
 * INCLUDE TRADE SECRETS AND CONFIDENTIAL AND PROPRIETARY      *
 * PRODUCTS OF ANSYS, INC., ITS SUBSIDIARIES, OR LICENSORS.    *
 * The software products and documentation are furnished by    *
 * ANSYS, Inc. or its subsidiaries under a software license    *
 * agreement that contains provisions concerning               *
 * non-disclosure, copying, length and nature of use,          *
 * compliance with exporting laws, warranties, disclaimers,    *
 * limitations of liability, and remedies, and other           *
 * provisions.  The software products and documentation may be *
 * used, disclosed, transferred, or copied only in accordance  *
 * with the terms and conditions of that software license      *
 * agreement.                                                  *
 *                                                             *
 * ANSYS, Inc. is a UL registered                              *
 * ISO 9001:2015 company.                                      *
 *                                                             *
 ***************************************************************
 *                                                             *
 * This product is subject to U.S. laws governing export and   *
 * re-export.                                                  *
 *                                                             *
 * For U.S. Government users, except as specifically granted   *
 * by the ANSYS, Inc. software license agreement, the use,     *
 * duplication, or disclosure by the United States Government  *
 * is subject to restrictions stated in the ANSYS, Inc.        *
 * software license agreement and FAR 12.212 (for non-DOD      *
 * licenses).                                                  *
 *                                                             *
 ***************************************************************

 2020 R1 
     
 Point Releases and Patches installed:   
     
 ANSYS, Inc. Products 2020 R1
 SpaceClaim 2020 R1  
 AIM 2020 R1 
 Live (includes SpaceClaim) 2020 R1  
 Autodyn 2020 R1 
 LS-DYNA 2020 R1 
 CFX (includes CFD-Post) 2020 R1 
 Chemkin 2020 R1 
 EnSight 2020 R1 
 FENSAP-ICE 2020 R1  
 Fluent (includes CFD-Post) 2020 R1  
 Forte 2020 R1   
 Polyflow (includes CFD-Post) 2020 R1
 TurboGrid 2020 R1   
 ICEM CFD 2020 R1
 Aqwa 2020 R1
 Customization Files for User Programmable Features 2020 R1  
 Mechanical Products 2020 R1 
 Additive 2020 R1
 ANSYS Sherlock 2020 R1  
 Icepak (includes CFD-Post) 2020 R1  
 ACIS Geometry Interface 2020 R1 
 AutoCAD Geometry Interface 2020 R1  
 Catia, Version 4 Geometry Interface 2020 R1 
 Catia, Version 5 Geometry Interface 2020 R1 
 Catia, Version 6 Geometry Interface 2020 R1 
 Creo Elements/Direct Modeling Geometry Interface 2020 R1
 Creo Parametric Geometry Interface 2020 R1  
 Inventor Geometry Interface 2020 R1 
 JTOpen Geometry Interface 2020 R1   
 NX Geometry Interface 2020 R1   
 Parasolid Geometry Interface  2020 R1   
 Solid Edge Geometry Interface 2020 R1   
 SOLIDWORKS Geometry Interface 2020 R1   
 ANSYS, Inc. License Manager 2020 R1 


          *****  ANSYS COMMAND LINE ARGUMENTS  *****
  BATCH MODE REQUESTED (-b)    = NOLIST
  INPUT FILE COPY MODE (-c)    = COPY
  DISTRIBUTED MEMORY PARALLEL REQUESTED
       2 PARALLEL PROCESSES REQUESTED WITH SINGLE THREAD PER PROCESS
    TOTAL OF     2 CORES REQUESTED
  INPUT FILE NAME              = C:\Users\Akash Levy\Documents\NEM-Relay-CAD\_ProjectScratch\ScrF127\dummy.dat
  OUTPUT FILE NAME             = C:\Users\Akash Levy\Documents\NEM-Relay-CAD\_ProjectScratch\ScrF127\solve.out
  START-UP FILE MODE           = NOREAD
  STOP FILE MODE               = NOREAD

 RELEASE= 2020 R1              BUILD= 20.1      UP20191203   VERSION=WINDOWS x64 
 CURRENT JOBNAME=file0  18:36:29  APR 05, 2020 CP=      0.594


 PARAMETER _DS_PROGRESS =     999.0000000    

 /INPUT FILE= ds.dat  LINE=       0



 *** NOTE ***                            CP =       0.828   TIME= 18:36:30
 The /CONFIG,NOELDB command is not valid in a Distributed ANSYS          
 solution.  Command is ignored.                                          

 *GET  _WALLSTRT  FROM  ACTI  ITEM=TIME WALL  VALUE=  18.6083333    

 TITLE= 
 relay--EM Static (D5)                                                         


 SET PARAMETER DIMENSIONS ON  _WB_PROJECTSCRATCH_DIR
  TYPE=STRI  DIMENSIONS=      248        1        1

 PARAMETER _WB_PROJECTSCRATCH_DIR(1) = C:\Users\Akash Levy\Documents\NEM-Relay-CAD\_ProjectScratch\ScrF127\

 SET PARAMETER DIMENSIONS ON  _WB_SOLVERFILES_DIR
  TYPE=STRI  DIMENSIONS=      248        1        1

 PARAMETER _WB_SOLVERFILES_DIR(1) = C:\Users\Akash Levy\Documents\NEM-Relay-CAD\relay_files\dp0\SYS-13\MECH\

 SET PARAMETER DIMENSIONS ON  _WB_USERFILES_DIR
  TYPE=STRI  DIMENSIONS=      248        1        1

 PARAMETER _WB_USERFILES_DIR(1) = C:\Users\Akash Levy\Documents\NEM-Relay-CAD\relay_files\user_files\
 --- Data in consistent MKS units. See Solving Units in the help system for more

 MKS UNITS SPECIFIED FOR INTERNAL    
  LENGTH        (l)  = METER (M)
  MASS          (M)  = KILOGRAM (KG)
  TIME          (t)  = SECOND (SEC)
  TEMPERATURE   (T)  = CELSIUS (C)
  TOFFSET            = 273.0
  CHARGE        (Q)  = COULOMB
  FORCE         (f)  = NEWTON (N) (KG-M/SEC2)
  HEAT               = JOULE (N-M)

  PRESSURE           = PASCAL (NEWTON/M**2)
  ENERGY        (W)  = JOULE (N-M)
  POWER         (P)  = WATT (N-M/SEC)
  CURRENT       (i)  = AMPERE (COULOMBS/SEC)
  CAPACITANCE   (C)  = FARAD
  INDUCTANCE    (L)  = HENRY
  MAGNETIC FLUX      = WEBER
  RESISTANCE    (R)  = OHM
  ELECTRIC POTENTIAL = VOLT

 INPUT  UNITS ARE ALSO SET TO MKS 

 *** ANSYS - ENGINEERING ANALYSIS SYSTEM  RELEASE 2020 R1          20.1     ***
 DISTRIBUTED ANSYS Mechanical Enterprise                       

 20120530  VERSION=WINDOWS x64   18:36:30  APR 05, 2020 CP=      0.875

 relay--EM Static (D5)                                                         



          ***** ANSYS ANALYSIS DEFINITION (PREP7) *****
 *********** Nodes for the whole assembly ***********
 *********** Elements for Body 1 "Relay" ***********
 *********** Elements for Body 2 "Contact 1" ***********
 *********** Elements for Body 3 "Contact 2" ***********
 *********** Elements for Body 4 "Contact 3" ***********
 *********** Elements for Body 5 "Contact 4" ***********
 *********** Elements for Body 6 "Contact 5" ***********
 *********** Elements for Body 7 "Contact 6" ***********
 *********** Elements for Body 8 "Contact 7" ***********
 *********** Elements for Body 9 "Contact 8" ***********
 *********** Elements for Body 10 "Substrate" ***********
 *********** Send User Defined Coordinate System(s) ***********
 *********** Set Reference Temperature ***********
 *********** Send Materials ***********
 *********** Create Contact "Contact Region 10" ***********
             Real Constant Set For Above Contact Is 12 & 11
 *********** Create Contact "Contact Region 11" ***********
             Real Constant Set For Above Contact Is 14 & 13
 *********** Create Contact "Contact Region 12" ***********
             Real Constant Set For Above Contact Is 16 & 15
 *********** Create Contact "Contact Region 13" ***********
             Real Constant Set For Above Contact Is 18 & 17
 *********** Create Contact "Contact Region 14" ***********
             Real Constant Set For Above Contact Is 20 & 19
 *********** Create Contact "Contact Region 15" ***********
             Real Constant Set For Above Contact Is 22 & 21
 *********** Create Contact "Contact Region 16" ***********
             Real Constant Set For Above Contact Is 24 & 23
 *********** Create Contact "Contact Region 17" ***********
             Real Constant Set For Above Contact Is 26 & 25
 *********** Create Contact "Contact Region 9" ***********
             Real Constant Set For Above Contact Is 28 & 27
 *********** Fixed Supports ***********
 *********** Create Structural MEMS Load ***********
  
 *** EMTGEN Command Macro
  

 *** NOTE *** Display device has not yet been specified with the /SHOW command.  Display commands ignored. 

  LISTING OF THE DATA ON FILE _emtgen.out
  
  ____________________ EMTGEN MACRO SUMMARY ________________________
  
  Macro has generated successfully 1394 TRANS126 elements.
  
  Component of structural boundary nodes: _CMMEMS165 .
  Component name of generated EMT elements = EMTELM .
  Component name of generated EMT plane nodes = _CM165 .
  Active structural DOF for TRANS126 elements = UZ .
  Initial gap between I and J nodes of EMT element = -1.E-07 .
  Minimal gap between I and J nodes = 5.E-09 .
  Modulus of elasticity for EMT contact stiffness = 1.45E+09 .
  Free-space permittivity value = 8.854E-12 .
  EMT stiffness method = AUGMENTED .
  
  ______________________________________________________________________


 ***** ROUTINE COMPLETED *****  CP =        11.203


 --- Number of total nodes = 12744
 --- Number of contact elements = 1726
 --- Number of spring elements = 0
 --- Number of bearing elements = 0
 --- Number of solid elements = 4550
 --- Number of condensed parts = 0
 --- Number of total elements = 7670

 *GET  _WALLBSOL  FROM  ACTI  ITEM=TIME WALL  VALUE=  18.6108333    
 ****************************************************************************
 *************************    SOLUTION       ********************************
 ****************************************************************************

 *****  ANSYS SOLUTION ROUTINE  *****


 PERFORM A STATIC ANALYSIS
  THIS WILL BE A NEW ANALYSIS

 PARAMETER _THICKRATIO =     0.000000000    

 USE SPARSE MATRIX DIRECT SOLVER

 CONTACT INFORMATION PRINTOUT LEVEL       1

 DO NOT COMBINE ELEMENT MATRIX FILES (.emat) AFTER DISTRIBUTED PARALLEL SOLUTION

 DO NOT COMBINE ELEMENT SAVE DATA FILES (.esav) AFTER DISTRIBUTED PARALLEL SOLUTION

 NLDIAG: Nonlinear diagnostics CONT option is set to ON. 
         Writing frequency : each ITERATION.

 DEFINE RESTART CONTROL FOR LOADSTEP LAST
 AT FREQUENCY OF LAST AND NUMBER FOR OVERWRITE IS   -1

 DELETE RESTART FILES OF ENDSTEP
 ****************************************************
 ******************* SOLVE FOR LS 1 OF 100 ****************

 PRINTOUT RESUMED BY /GOP

 SPECIFIED CONSTRAINT VOLT FOR PICKED NODES 
 REAL=_LOADVARI165   IMAG=  0.00000000    

 SPECIFIED CONSTRAINT VOLT FOR PICKED NODES 
 REAL=  0.00000000       IMAG=  0.00000000    

 SPECIFIED CONSTRAINT UX   FOR PICKED NODES 
 REAL=  0.00000000       IMAG=  0.00000000    

 SPECIFIED CONSTRAINT UY   FOR PICKED NODES 
 REAL=  0.00000000       IMAG=  0.00000000    

 SPECIFIED CONSTRAINT UZ   FOR PICKED NODES 
 REAL=  0.00000000       IMAG=  0.00000000    

 ALL SELECT   FOR ITEM=NODE COMPONENT=    
  IN RANGE         1 TO      12744 STEP          1

      12744  NODES (OF      12744  DEFINED) SELECTED BY NSEL  COMMAND.

 ALL SELECT   FOR ITEM=ELEM COMPONENT=    
  IN RANGE         1 TO      11320 STEP          1

       7670  ELEMENTS (OF       7670  DEFINED) SELECTED BY  ESEL  COMMAND.

 USE AUTOMATIC TIME STEPPING THIS LOAD STEP

 USE       1 SUBSTEPS INITIALLY THIS LOAD STEP FOR ALL  DEGREES OF FREEDOM
 FOR AUTOMATIC TIME STEPPING:
   USE     10 SUBSTEPS AS A MAXIMUM
   USE      1 SUBSTEPS AS A MINIMUM

 TIME=  1.0000    

 ERASE THE CURRENT DATABASE OUTPUT CONTROL TABLE.


 WRITE ALL  ITEMS TO THE DATABASE WITH A FREQUENCY OF NONE
   FOR ALL APPLICABLE ENTITIES

 WRITE NSOL ITEMS TO THE DATABASE WITH A FREQUENCY OF ALL 
   FOR ALL APPLICABLE ENTITIES

 WRITE RSOL ITEMS TO THE DATABASE WITH A FREQUENCY OF ALL 
   FOR ALL APPLICABLE ENTITIES

 WRITE EANG ITEMS TO THE DATABASE WITH A FREQUENCY OF ALL 
   FOR ALL APPLICABLE ENTITIES

 WRITE ETMP ITEMS TO THE DATABASE WITH A FREQUENCY OF ALL 
   FOR ALL APPLICABLE ENTITIES

 WRITE VENG ITEMS TO THE DATABASE WITH A FREQUENCY OF ALL 
   FOR ALL APPLICABLE ENTITIES

 WRITE STRS ITEMS TO THE DATABASE WITH A FREQUENCY OF ALL 
   FOR ALL APPLICABLE ENTITIES

 WRITE EPEL ITEMS TO THE DATABASE WITH A FREQUENCY OF ALL 
   FOR ALL APPLICABLE ENTITIES

 WRITE EPPL ITEMS TO THE DATABASE WITH A FREQUENCY OF ALL 
   FOR ALL APPLICABLE ENTITIES

 WRITE CONT ITEMS TO THE DATABASE WITH A FREQUENCY OF ALL 
   FOR ALL APPLICABLE ENTITIES

 CONVERGENCE ON U    BASED ON A REFERENCE VALUE OF 0.1000E-08
   WITH A TOLERANCE OF 0.5000E-02
   USING THE INFINITE NORM (CHECK EACH DEGREE OF FREEDOM SEPARATELY)

 PARAMETER ARG1 =     4.700000000    

 PARAMETER ARG2 =    0.1000000000    

 PARAMETER EPSR =     4.700000000    

 PARAMETER KN =    0.1000000000    

 FINISH SOLUTION PROCESSING


 ***** ROUTINE COMPLETED *****  CP =        11.266



 *** ANSYS - ENGINEERING ANALYSIS SYSTEM  RELEASE 2020 R1          20.1     ***
 DISTRIBUTED ANSYS Mechanical Enterprise                       

 20120530  VERSION=WINDOWS x64   18:36:39  APR 05, 2020 CP=     11.266

                                                                               



          ***** ANSYS ANALYSIS DEFINITION (PREP7) *****

 SELECT       FOR ITEM=ENAM COMPONENT=    
  IN RANGE       126 TO        126 STEP          1

       1394  ELEMENTS (OF       7670  DEFINED) SELECTED BY  ESEL  COMMAND.

 *GET  NELEMS    FROM  ELEM  ITEM=COUN           VALUE=  1394.00000    

 PARAMETER ELM =     0.000000000    

 *DO LOOP ON PARAMETER= I FROM  1.0000     TO  1394.0     BY  1.0000    

 PARAMETER ELM =     9927.000000    

 *GET  RNUM      FROM  ELEM      9927  ITEM=ATTR REAL      VALUE=  29.0000000    

 *GET  R7        FROM  RCON     29  ITEM=CONS 7     VALUE= 0.430479885E-25

 PARAMETER R7_NEW =    0.2023255458E-24

 MODIFY REAL CONSTANTS FOR SET     29  STARTING WITH  7  NEW VALUES ARE

   0.20233E-24   0.0000       0.0000       0.0000       0.0000       0.0000    

 *GET  R5        FROM  RCON     29  ITEM=CONS 5     VALUE=  70.4987387    

 PARAMETER R5_NEW =     7.049873873    

 MODIFY REAL CONSTANTS FOR SET     29  STARTING WITH  5  NEW VALUES ARE

    7.0499       0.0000      0.20233E-24   0.0000       0.0000       0.0000    

 *ENDDO  INDEX= I                               


 ***** ROUTINE COMPLETED *****  CP =        11.516



 *****  ANSYS SOLUTION ROUTINE  *****

 SELECT ALL ENTITIES OF TYPE= ALL  AND BELOW

 *GET  ANSINTER_  FROM  ACTI  ITEM=INT        VALUE=  0.00000000    

 *IF  ANSINTER_                         ( =   0.00000     )  NE  
      0                                 ( =   0.00000     )  THEN    

 *ENDIF

 *** NOTE ***                            CP =      11.516   TIME= 18:36:39
 The automatic domain decomposition logic has selected the MESH domain   
 decomposition method with 2 processes per solution.                     

 *****  ANSYS SOLVE    COMMAND  *****

 *** NOTE ***                            CP =      11.531   TIME= 18:36:39
 There is no title defined for this analysis.                            

 *** WARNING ***                         CP =      11.531   TIME= 18:36:39
 Element shape checking is currently inactive.  Issue SHPP,ON or         
 SHPP,WARN to reactivate, if desired.                                    

 *** NOTE ***                            CP =      11.547   TIME= 18:36:39
 The model data was checked and warning messages were found.             
  Please review output or errors file ( C:\Users\Akash                   
 Levy\Documents\NEM-Relay-CAD\_ProjectScratch\ScrF127\file0.err ) for    
 these warning messages.                                                 

 *** SELECTION OF ELEMENT TECHNOLOGIES FOR APPLICABLE ELEMENTS ***
      --- GIVE SUGGESTIONS AND RESET THE KEY OPTIONS ---

 ELEMENT TYPE    1 IS SOLID187. IT IS NOT ASSOCIATED WITH FULLY INCOMPRESSIBLE
 HYPERELASTIC MATERIALS. NO SUGGESTION IS AVAILABLE AND NO RESETTING IS NEEDED.

 ELEMENT TYPE    2 IS SOLID186. KEYOPT(2)=0 IS SUGGESTED AND HAS BEEN RESET.
  KEYOPT(1-12)=    0    0    0    0    0    0    0    0    0    0    0    0

 ELEMENT TYPE    3 IS SOLID186. KEYOPT(2)=0 IS SUGGESTED AND HAS BEEN RESET.
  KEYOPT(1-12)=    0    0    0    0    0    0    0    0    0    0    0    0

 ELEMENT TYPE    4 IS SOLID186. KEYOPT(2)=0 IS SUGGESTED AND HAS BEEN RESET.
  KEYOPT(1-12)=    0    0    0    0    0    0    0    0    0    0    0    0

 ELEMENT TYPE    5 IS SOLID186. KEYOPT(2)=0 IS SUGGESTED AND HAS BEEN RESET.
  KEYOPT(1-12)=    0    0    0    0    0    0    0    0    0    0    0    0

 ELEMENT TYPE    6 IS SOLID187. IT IS NOT ASSOCIATED WITH FULLY INCOMPRESSIBLE
 HYPERELASTIC MATERIALS. NO SUGGESTION IS AVAILABLE AND NO RESETTING IS NEEDED.

 ELEMENT TYPE    7 IS SOLID187. IT IS NOT ASSOCIATED WITH FULLY INCOMPRESSIBLE
 HYPERELASTIC MATERIALS. NO SUGGESTION IS AVAILABLE AND NO RESETTING IS NEEDED.

 ELEMENT TYPE    8 IS SOLID187. IT IS NOT ASSOCIATED WITH FULLY INCOMPRESSIBLE
 HYPERELASTIC MATERIALS. NO SUGGESTION IS AVAILABLE AND NO RESETTING IS NEEDED.

 ELEMENT TYPE    9 IS SOLID187. IT IS NOT ASSOCIATED WITH FULLY INCOMPRESSIBLE
 HYPERELASTIC MATERIALS. NO SUGGESTION IS AVAILABLE AND NO RESETTING IS NEEDED.

 ELEMENT TYPE   10 IS SOLID186. KEYOPT(2)=0 IS SUGGESTED AND HAS BEEN RESET.
  KEYOPT(1-12)=    0    0    0    0    0    0    0    0    0    0    0    0



 *** ANSYS - ENGINEERING ANALYSIS SYSTEM  RELEASE 2020 R1          20.1     ***
 DISTRIBUTED ANSYS Mechanical Enterprise                       

 20120530  VERSION=WINDOWS x64   18:36:39  APR 05, 2020 CP=     11.547

                                                                               



                       S O L U T I O N   O P T I O N S

   PROBLEM DIMENSIONALITY. . . . . . . . . . . . .3-D                  
   DEGREES OF FREEDOM. . . . . . UX   UY   UZ   VOLT
   ANALYSIS TYPE . . . . . . . . . . . . . . . . .STATIC (STEADY-STATE)
   OFFSET TEMPERATURE FROM ABSOLUTE ZERO . . . . .  273.15    
   EQUATION SOLVER OPTION. . . . . . . . . . . . .SPARSE             
   NEWTON-RAPHSON OPTION . . . . . . . . . . . . .PROGRAM CHOSEN   
   GLOBALLY ASSEMBLED MATRIX . . . . . . . . . . .UNSYMMETRIC

 *** NOTE ***                            CP =      11.578   TIME= 18:36:39
 The Solution Control Option is only valid for single field structural,  
 single field thermal, single field diffusion, coupled                   
 thermal-diffusion analyses and coupled-field analyses with structural   
 degrees of freedom.  The SOLCONTROL,ON command (if present) has been    
 de-activated.                                                           

 *** NOTE ***                            CP =      11.578   TIME= 18:36:39
 This nonlinear analysis defaults to using the full Newton-Raphson       
 solution procedure.  This can be modified using the NROPT command.      

 *** NOTE ***                            CP =      11.719   TIME= 18:36:39
 Symmetric Deformable- deformable contact pair identified by real        
 constant set 11 and contact element type 11 has been set up.  The       
 companion pair has real constant set ID 12.  Both pairs should have     
 the same behavior.                                                      
 ANSYS will deactivate the current pair and keep its companion pair,     
 resulting in asymmetric contact.                                        
 Small sliding logic is assumed
 Contact algorithm: Augmented Lagrange method
 Contact detection at: Gauss integration point
 Contact stiffness factor FKN                  10.000    
 The resulting initial contact stiffness      0.24380E+21
 Default penetration tolerance factor FTOLN   0.10000    
 The resulting penetration tolerance          0.11895E-07
 Default opening contact stiffness OPSF will be used.
 Default tangent stiffness factor FKT          1.0000    
 Default elastic slip factor SLTOL            0.50000E-02
 The resulting elastic slip tolerance         0.82910E-09
 Update contact stiffness at each iteration
 Default Max. friction stress TAUMAX          0.10000E+21
 Average contact surface length               0.16582E-06
 Average contact pair depth                   0.11895E-06
 Default pinball region factor PINB           0.25000    
 The resulting pinball region                 0.29737E-07
 Initial penetration/gap is excluded.
 Bonded contact (always) is defined.

 *** NOTE ***                            CP =      11.719   TIME= 18:36:39
 Max.  Initial penetration 0 was detected between contact element 8261   
 and target element 8364.                                                
 ****************************************
  

 *** NOTE ***                            CP =      11.719   TIME= 18:36:39
 Symmetric Deformable- deformable contact pair identified by real        
 constant set 12 and contact element type 11 has been set up.  The       
 companion pair has real constant set ID 11.  Both pairs should have     
 the same behavior.                                                      
 ANSYS will keep the current pair and deactivate its companion pair,     
 resulting in asymmetric contact.                                        
 Small sliding logic is assumed
 Contact algorithm: Augmented Lagrange method
 Contact detection at: Gauss integration point
 Contact stiffness factor FKN                  10.000    
 The resulting initial contact stiffness      0.24380E+21
 Default penetration tolerance factor FTOLN   0.10000    
 The resulting penetration tolerance          0.24439E-08
 Default opening contact stiffness OPSF will be used.
 Default tangent stiffness factor FKT          1.0000    
 Default elastic slip factor SLTOL            0.50000E-02
 The resulting elastic slip tolerance         0.31213E-09
 Update contact stiffness at each iteration
 Default Max. friction stress TAUMAX          0.10000E+21
 Average contact surface length               0.62426E-07
 Average contact pair depth                   0.24439E-07
 Default pinball region factor PINB           0.25000    
 The resulting pinball region                 0.61097E-08
 Initial penetration/gap is excluded.
 Bonded contact (always) is defined.

 *** NOTE ***                            CP =      11.719   TIME= 18:36:39
 Max.  Initial penetration 0 was detected between contact element 8321   
 and target element 8219.                                                
 ****************************************
  

 *** NOTE ***                            CP =      11.719   TIME= 18:36:39
 Symmetric Deformable- deformable contact pair identified by real        
 constant set 13 and contact element type 13 has been set up.  The       
 companion pair has real constant set ID 14.  Both pairs should have     
 the same behavior.                                                      
 ANSYS will deactivate the current pair and keep its companion pair,     
 resulting in asymmetric contact.                                        
 Small sliding logic is assumed
 Contact algorithm: Augmented Lagrange method
 Contact detection at: Gauss integration point
 Contact stiffness factor FKN                  10.000    
 The resulting initial contact stiffness      0.26104E+21
 Default penetration tolerance factor FTOLN   0.10000    
 The resulting penetration tolerance          0.11109E-07
 Default opening contact stiffness OPSF will be used.
 Default tangent stiffness factor FKT          1.0000    
 Default elastic slip factor SLTOL            0.50000E-02
 The resulting elastic slip tolerance         0.82189E-09
 Update contact stiffness at each iteration
 Default Max. friction stress TAUMAX          0.10000E+21
 Average contact surface length               0.16438E-06
 Average contact pair depth                   0.11109E-06
 Default pinball region factor PINB           0.25000    
 The resulting pinball region                 0.27773E-07
 Initial penetration/gap is excluded.
 Bonded contact (always) is defined.

 *** NOTE ***                            CP =      11.734   TIME= 18:36:39
 Max.  Initial penetration 0 was detected between contact element 8458   
 and target element 8560.                                                
 ****************************************
  

 *** NOTE ***                            CP =      11.734   TIME= 18:36:39
 Symmetric Deformable- deformable contact pair identified by real        
 constant set 14 and contact element type 13 has been set up.  The       
 companion pair has real constant set ID 13.  Both pairs should have     
 the same behavior.                                                      
 ANSYS will keep the current pair and deactivate its companion pair,     
 resulting in asymmetric contact.                                        
 Small sliding logic is assumed
 Contact algorithm: Augmented Lagrange method
 Contact detection at: Gauss integration point
 Contact stiffness factor FKN                  10.000    
 The resulting initial contact stiffness      0.26104E+21
 Default penetration tolerance factor FTOLN   0.10000    
 The resulting penetration tolerance          0.24439E-08
 Default opening contact stiffness OPSF will be used.
 Default tangent stiffness factor FKT          1.0000    
 Default elastic slip factor SLTOL            0.50000E-02
 The resulting elastic slip tolerance         0.31213E-09
 Update contact stiffness at each iteration
 Default Max. friction stress TAUMAX          0.10000E+21
 Average contact surface length               0.62426E-07
 Average contact pair depth                   0.24439E-07
 Default pinball region factor PINB           0.25000    
 The resulting pinball region                 0.61097E-08
 Initial penetration/gap is excluded.
 Bonded contact (always) is defined.

 *** NOTE ***                            CP =      11.734   TIME= 18:36:39
 Max.  Initial penetration 0 was detected between contact element 8517   
 and target element 8406.                                                
 ****************************************
  

 *** NOTE ***                            CP =      11.734   TIME= 18:36:39
 Symmetric Deformable- deformable contact pair identified by real        
 constant set 15 and contact element type 15 has been set up.  The       
 companion pair has real constant set ID 16.  Both pairs should have     
 the same behavior.                                                      
 ANSYS will deactivate the current pair and keep its companion pair,     
 resulting in asymmetric contact.                                        
 Small sliding logic is assumed
 Contact algorithm: Augmented Lagrange method
 Contact detection at: Gauss integration point
 Contact stiffness factor FKN                  10.000    
 The resulting initial contact stiffness      0.23942E+21
 Default penetration tolerance factor FTOLN   0.10000    
 The resulting penetration tolerance          0.12112E-07
 Default opening contact stiffness OPSF will be used.
 Default tangent stiffness factor FKT          1.0000    
 Default elastic slip factor SLTOL            0.50000E-02
 The resulting elastic slip tolerance         0.82639E-09
 Update contact stiffness at each iteration
 Default Max. friction stress TAUMAX          0.10000E+21
 Average contact surface length               0.16528E-06
 Average contact pair depth                   0.12112E-06
 Default pinball region factor PINB           0.25000    
 The resulting pinball region                 0.30281E-07
 Initial penetration/gap is excluded.
 Bonded contact (always) is defined.

 *** NOTE ***                            CP =      11.734   TIME= 18:36:39
 Max.  Initial penetration 0 was detected between contact element 8655   
 and target element 8785.                                                
 ****************************************
  

 *** NOTE ***                            CP =      11.734   TIME= 18:36:39
 Symmetric Deformable- deformable contact pair identified by real        
 constant set 16 and contact element type 15 has been set up.  The       
 companion pair has real constant set ID 15.  Both pairs should have     
 the same behavior.                                                      
 ANSYS will keep the current pair and deactivate its companion pair,     
 resulting in asymmetric contact.                                        
 Small sliding logic is assumed
 Contact algorithm: Augmented Lagrange method
 Contact detection at: Gauss integration point
 Contact stiffness factor FKN                  10.000    
 The resulting initial contact stiffness      0.23942E+21
 Default penetration tolerance factor FTOLN   0.10000    
 The resulting penetration tolerance          0.26261E-08
 Default opening contact stiffness OPSF will be used.
 Default tangent stiffness factor FKT          1.0000    
 Default elastic slip factor SLTOL            0.50000E-02
 The resulting elastic slip tolerance         0.31213E-09
 Update contact stiffness at each iteration
 Default Max. friction stress TAUMAX          0.10000E+21
 Average contact surface length               0.62426E-07
 Average contact pair depth                   0.26261E-07
 Default pinball region factor PINB           0.25000    
 The resulting pinball region                 0.65652E-08
 Initial penetration/gap is excluded.
 Bonded contact (always) is defined.

 *** NOTE ***                            CP =      11.734   TIME= 18:36:39
 Max.  Initial penetration 0 was detected between contact element 8713   
 and target element 8599.                                                
 ****************************************
  

 *** NOTE ***                            CP =      11.734   TIME= 18:36:39
 Symmetric Deformable- deformable contact pair identified by real        
 constant set 17 and contact element type 17 has been set up.  The       
 companion pair has real constant set ID 18.  Both pairs should have     
 the same behavior.                                                      
 ANSYS will deactivate the current pair and keep its companion pair,     
 resulting in asymmetric contact.                                        
 Small sliding logic is assumed
 Contact algorithm: Augmented Lagrange method
 Contact detection at: Gauss integration point
 Contact stiffness factor FKN                  10.000    
 The resulting initial contact stiffness      0.23710E+21
 Default penetration tolerance factor FTOLN   0.10000    
 The resulting penetration tolerance          0.12231E-07
 Default opening contact stiffness OPSF will be used.
 Default tangent stiffness factor FKT          1.0000    
 Default elastic slip factor SLTOL            0.50000E-02
 The resulting elastic slip tolerance         0.84863E-09
 Update contact stiffness at each iteration
 Default Max. friction stress TAUMAX          0.10000E+21
 Average contact surface length               0.16973E-06
 Average contact pair depth                   0.12231E-06
 Default pinball region factor PINB           0.25000    
 The resulting pinball region                 0.30578E-07
 Initial penetration/gap is excluded.
 Bonded contact (always) is defined.

 *** NOTE ***                            CP =      11.734   TIME= 18:36:39
 Max.  Initial penetration 0 was detected between contact element 8848   
 and target element 8949.                                                
 ****************************************
  

 *** NOTE ***                            CP =      11.734   TIME= 18:36:39
 Symmetric Deformable- deformable contact pair identified by real        
 constant set 18 and contact element type 17 has been set up.  The       
 companion pair has real constant set ID 17.  Both pairs should have     
 the same behavior.                                                      
 ANSYS will keep the current pair and deactivate its companion pair,     
 resulting in asymmetric contact.                                        
 Small sliding logic is assumed
 Contact algorithm: Augmented Lagrange method
 Contact detection at: Gauss integration point
 Contact stiffness factor FKN                  10.000    
 The resulting initial contact stiffness      0.23710E+21
 Default penetration tolerance factor FTOLN   0.10000    
 The resulting penetration tolerance          0.26261E-08
 Default opening contact stiffness OPSF will be used.
 Default tangent stiffness factor FKT          1.0000    
 Default elastic slip factor SLTOL            0.50000E-02
 The resulting elastic slip tolerance         0.31213E-09
 Update contact stiffness at each iteration
 Default Max. friction stress TAUMAX          0.10000E+21
 Average contact surface length               0.62426E-07
 Average contact pair depth                   0.26261E-07
 Default pinball region factor PINB           0.25000    
 The resulting pinball region                 0.65652E-08
 Initial penetration/gap is excluded.
 Bonded contact (always) is defined.

 *** NOTE ***                            CP =      11.734   TIME= 18:36:39
 Max.  Initial penetration 0 was detected between contact element 8905   
 and target element 8794.                                                
 ****************************************
  

 *** NOTE ***                            CP =      11.734   TIME= 18:36:39
 Symmetric Deformable- deformable contact pair identified by real        
 constant set 19 and contact element type 19 has been set up.  The       
 companion pair has real constant set ID 20.  Both pairs should have     
 the same behavior.                                                      
 ANSYS will deactivate the current pair and keep its companion pair,     
 resulting in asymmetric contact.                                        
 Small sliding logic is assumed
 Contact algorithm: Augmented Lagrange method
 Contact detection at: Gauss integration point
 Contact stiffness factor FKN                  10.000    
 The resulting initial contact stiffness      0.28099E+21
 Default penetration tolerance factor FTOLN   0.10000    
 The resulting penetration tolerance          0.10320E-07
 Default opening contact stiffness OPSF will be used.
 Default tangent stiffness factor FKT          1.0000    
 Default elastic slip factor SLTOL            0.50000E-02
 The resulting elastic slip tolerance         0.75699E-09
 Update contact stiffness at each iteration
 Default Max. friction stress TAUMAX          0.10000E+21
 Average contact surface length               0.15140E-06
 Average contact pair depth                   0.10320E-06
 Default pinball region factor PINB           0.25000    
 The resulting pinball region                 0.25801E-07
 Initial penetration/gap is excluded.
 Bonded contact (always) is defined.

 *** NOTE ***                            CP =      11.734   TIME= 18:36:39
 Max.  Initial penetration 0 was detected between contact element 9042   
 and target element 9170.                                                
 ****************************************
  

 *** NOTE ***                            CP =      11.734   TIME= 18:36:39
 Symmetric Deformable- deformable contact pair identified by real        
 constant set 20 and contact element type 19 has been set up.  The       
 companion pair has real constant set ID 19.  Both pairs should have     
 the same behavior.                                                      
 ANSYS will keep the current pair and deactivate its companion pair,     
 resulting in asymmetric contact.                                        
 Small sliding logic is assumed
 Contact algorithm: Augmented Lagrange method
 Contact detection at: Gauss integration point
 Contact stiffness factor FKN                  10.000    
 The resulting initial contact stiffness      0.28099E+21
 Default penetration tolerance factor FTOLN   0.10000    
 The resulting penetration tolerance          0.26943E-08
 Default opening contact stiffness OPSF will be used.
 Default tangent stiffness factor FKT          1.0000    
 Default elastic slip factor SLTOL            0.50000E-02
 The resulting elastic slip tolerance         0.37864E-09
 Update contact stiffness at each iteration
 Default Max. friction stress TAUMAX          0.10000E+21
 Average contact surface length               0.75727E-07
 Average contact pair depth                   0.26943E-07
 Default pinball region factor PINB           0.25000    
 The resulting pinball region                 0.67357E-08
 Initial penetration/gap is excluded.
 Bonded contact (always) is defined.

 *** NOTE ***                            CP =      11.734   TIME= 18:36:39
 Max.  Initial penetration 0 was detected between contact element 9101   
 and target element 9003.                                                
 ****************************************
  

 *** NOTE ***                            CP =      11.734   TIME= 18:36:39
 Symmetric Deformable- deformable contact pair identified by real        
 constant set 21 and contact element type 21 has been set up.  The       
 companion pair has real constant set ID 22.  Both pairs should have     
 the same behavior.                                                      
 ANSYS will deactivate the current pair and keep its companion pair,     
 resulting in asymmetric contact.                                        
 Small sliding logic is assumed
 Contact algorithm: Augmented Lagrange method
 Contact detection at: Gauss integration point
 Contact stiffness factor FKN                  10.000    
 The resulting initial contact stiffness      0.25728E+21
 Default penetration tolerance factor FTOLN   0.10000    
 The resulting penetration tolerance          0.11272E-07
 Default opening contact stiffness OPSF will be used.
 Default tangent stiffness factor FKT          1.0000    
 Default elastic slip factor SLTOL            0.50000E-02
 The resulting elastic slip tolerance         0.77586E-09
 Update contact stiffness at each iteration
 Default Max. friction stress TAUMAX          0.10000E+21
 Average contact surface length               0.15517E-06
 Average contact pair depth                   0.11272E-06
 Default pinball region factor PINB           0.25000    
 The resulting pinball region                 0.28179E-07
 Initial penetration/gap is excluded.
 Bonded contact (always) is defined.

 *** NOTE ***                            CP =      11.734   TIME= 18:36:39
 Max.  Initial penetration 0 was detected between contact element 9259   
 and target element 9388.                                                
 ****************************************
  

 *** NOTE ***                            CP =      11.734   TIME= 18:36:39
 Symmetric Deformable- deformable contact pair identified by real        
 constant set 22 and contact element type 21 has been set up.  The       
 companion pair has real constant set ID 21.  Both pairs should have     
 the same behavior.                                                      
 ANSYS will keep the current pair and deactivate its companion pair,     
 resulting in asymmetric contact.                                        
 Small sliding logic is assumed
 Contact algorithm: Augmented Lagrange method
 Contact detection at: Gauss integration point
 Contact stiffness factor FKN                  10.000    
 The resulting initial contact stiffness      0.25728E+21
 Default penetration tolerance factor FTOLN   0.10000    
 The resulting penetration tolerance          0.26962E-08
 Default opening contact stiffness OPSF will be used.
 Default tangent stiffness factor FKT          1.0000    
 Default elastic slip factor SLTOL            0.50000E-02
 The resulting elastic slip tolerance         0.37034E-09
 Update contact stiffness at each iteration
 Default Max. friction stress TAUMAX          0.10000E+21
 Average contact surface length               0.74068E-07
 Average contact pair depth                   0.26962E-07
 Default pinball region factor PINB           0.25000    
 The resulting pinball region                 0.67405E-08
 Initial penetration/gap is excluded.
 Bonded contact (always) is defined.

 *** NOTE ***                            CP =      11.734   TIME= 18:36:39
 Max.  Initial penetration 0 was detected between contact element 9311   
 and target element 9209.                                                
 ****************************************
  

 *** NOTE ***                            CP =      11.734   TIME= 18:36:39
 Symmetric Deformable- deformable contact pair identified by real        
 constant set 23 and contact element type 23 has been set up.  The       
 companion pair has real constant set ID 24.  Both pairs should have     
 the same behavior.                                                      
 ANSYS will deactivate the current pair and keep its companion pair,     
 resulting in asymmetric contact.                                        
 Small sliding logic is assumed
 Contact algorithm: Augmented Lagrange method
 Contact detection at: Gauss integration point
 Contact stiffness factor FKN                  10.000    
 The resulting initial contact stiffness      0.26268E+21
 Default penetration tolerance factor FTOLN   0.10000    
 The resulting penetration tolerance          0.11040E-07
 Default opening contact stiffness OPSF will be used.
 Default tangent stiffness factor FKT          1.0000    
 Default elastic slip factor SLTOL            0.50000E-02
 The resulting elastic slip tolerance         0.82214E-09
 Update contact stiffness at each iteration
 Default Max. friction stress TAUMAX          0.10000E+21
 Average contact surface length               0.16443E-06
 Average contact pair depth                   0.11040E-06
 Default pinball region factor PINB           0.25000    
 The resulting pinball region                 0.27600E-07
 Initial penetration/gap is excluded.
 Bonded contact (always) is defined.

 *** NOTE ***                            CP =      11.734   TIME= 18:36:39
 Max.  Initial penetration 0 was detected between contact element 9466   
 and target element 9600.                                                
 ****************************************
  

 *** NOTE ***                            CP =      11.734   TIME= 18:36:39
 Symmetric Deformable- deformable contact pair identified by real        
 constant set 24 and contact element type 23 has been set up.  The       
 companion pair has real constant set ID 23.  Both pairs should have     
 the same behavior.                                                      
 ANSYS will keep the current pair and deactivate its companion pair,     
 resulting in asymmetric contact.                                        
 Small sliding logic is assumed
 Contact algorithm: Augmented Lagrange method
 Contact detection at: Gauss integration point
 Contact stiffness factor FKN                  10.000    
 The resulting initial contact stiffness      0.26268E+21
 Default penetration tolerance factor FTOLN   0.10000    
 The resulting penetration tolerance          0.26111E-08
 Default opening contact stiffness OPSF will be used.
 Default tangent stiffness factor FKT          1.0000    
 Default elastic slip factor SLTOL            0.50000E-02
 The resulting elastic slip tolerance         0.36457E-09
 Update contact stiffness at each iteration
 Default Max. friction stress TAUMAX          0.10000E+21
 Average contact surface length               0.72915E-07
 Average contact pair depth                   0.26111E-07
 Default pinball region factor PINB           0.25000    
 The resulting pinball region                 0.65279E-08
 Initial penetration/gap is excluded.
 Bonded contact (always) is defined.

 *** NOTE ***                            CP =      11.734   TIME= 18:36:39
 Max.  Initial penetration 0 was detected between contact element 9513   
 and target element 9460.                                                
 ****************************************
  

 *** NOTE ***                            CP =      11.734   TIME= 18:36:39
 Symmetric Deformable- deformable contact pair identified by real        
 constant set 25 and contact element type 25 has been set up.  The       
 companion pair has real constant set ID 26.  Both pairs should have     
 the same behavior.                                                      
 ANSYS will deactivate the current pair and keep its companion pair,     
 resulting in asymmetric contact.                                        
 Small sliding logic is assumed
 Contact algorithm: Augmented Lagrange method
 Contact detection at: Gauss integration point
 Contact stiffness factor FKN                  10.000    
 The resulting initial contact stiffness      0.27861E+21
 Default penetration tolerance factor FTOLN   0.10000    
 The resulting penetration tolerance          0.10409E-07
 Default opening contact stiffness OPSF will be used.
 Default tangent stiffness factor FKT          1.0000    
 Default elastic slip factor SLTOL            0.50000E-02
 The resulting elastic slip tolerance         0.76866E-09
 Update contact stiffness at each iteration
 Default Max. friction stress TAUMAX          0.10000E+21
 Average contact surface length               0.15373E-06
 Average contact pair depth                   0.10409E-06
 Default pinball region factor PINB           0.25000    
 The resulting pinball region                 0.26022E-07
 Initial penetration/gap is excluded.
 Bonded contact (always) is defined.

 *** NOTE ***                            CP =      11.734   TIME= 18:36:39
 Max.  Initial penetration 0 was detected between contact element 9681   
 and target element 9826.                                                
 ****************************************
  

 *** NOTE ***                            CP =      11.734   TIME= 18:36:39
 Symmetric Deformable- deformable contact pair identified by real        
 constant set 26 and contact element type 25 has been set up.  The       
 companion pair has real constant set ID 25.  Both pairs should have     
 the same behavior.                                                      
 ANSYS will keep the current pair and deactivate its companion pair,     
 resulting in asymmetric contact.                                        
 Small sliding logic is assumed
 Contact algorithm: Augmented Lagrange method
 Contact detection at: Gauss integration point
 Contact stiffness factor FKN                  10.000    
 The resulting initial contact stiffness      0.27861E+21
 Default penetration tolerance factor FTOLN   0.10000    
 The resulting penetration tolerance          0.25938E-08
 Default opening contact stiffness OPSF will be used.
 Default tangent stiffness factor FKT          1.0000    
 Default elastic slip factor SLTOL            0.50000E-02
 The resulting elastic slip tolerance         0.37214E-09
 Update contact stiffness at each iteration
 Default Max. friction stress TAUMAX          0.10000E+21
 Average contact surface length               0.74428E-07
 Average contact pair depth                   0.25938E-07
 Default pinball region factor PINB           0.25000    
 The resulting pinball region                 0.64846E-08
 Initial penetration/gap is excluded.
 Bonded contact (always) is defined.

 *** NOTE ***                            CP =      11.734   TIME= 18:36:39
 Max.  Initial penetration 0 was detected between contact element 9739   
 and target element 9640.                                                
 ****************************************
  

 *** NOTE ***                            CP =      11.734   TIME= 18:36:39
 Symmetric Deformable- deformable contact pair identified by real        
 constant set 27 and contact element type 27 has been set up.  The       
 companion pair has real constant set ID 28.  Both pairs should have     
 the same behavior.                                                      
 ANSYS will keep the current pair and deactivate its companion pair,     
 resulting in asymmetric contact.                                        
 Small sliding logic is assumed
 Contact algorithm: Augmented Lagrange method
 Contact detection at: Gauss integration point
 Contact stiffness factor FKN                  10.000    
 The resulting initial contact stiffness      0.26838E+21
 Default penetration tolerance factor FTOLN   0.10000    
 The resulting penetration tolerance          0.10806E-07
 Default opening contact stiffness OPSF will be used.
 Default tangent stiffness factor FKT          1.0000    
 Default elastic slip factor SLTOL            0.50000E-02
 The resulting elastic slip tolerance         0.13435E-08
 Update contact stiffness at each iteration
 Default Max. friction stress TAUMAX          0.10000E+21
 Average contact surface length               0.26871E-06
 Average contact pair depth                   0.10806E-06
 Default pinball region factor PINB           0.25000    
 The resulting pinball region                 0.27014E-07
 Initial penetration/gap is excluded.
 Bonded contact (always) is defined.

 *** NOTE ***                            CP =      11.734   TIME= 18:36:39
 Max.  Initial penetration 3.97046694E-23 was detected between contact   
 element 9871 and target element 9926.                                   
 ****************************************
  

 *** NOTE ***                            CP =      11.734   TIME= 18:36:39
 Symmetric Deformable- deformable contact pair identified by real        
 constant set 28 and contact element type 27 has been set up.  The       
 companion pair has real constant set ID 27.  Both pairs should have     
 the same behavior.                                                      
 ANSYS will deactivate the current pair and keep its companion pair,     
 resulting in asymmetric contact.                                        
 Small sliding logic is assumed
 Contact algorithm: Augmented Lagrange method
 Contact detection at: Gauss integration point
 Default contact stiffness factor FKN          1.0000    
 The resulting initial contact stiffness      0.26838E+20
 Default penetration tolerance factor FTOLN   0.10000    
 The resulting penetration tolerance          0.18000E-07
 Default opening contact stiffness OPSF will be used.
 Default tangent stiffness factor FKT          1.0000    
 Default elastic slip factor SLTOL            0.50000E-02
 The resulting elastic slip tolerance         0.30000E-08
 Update contact stiffness at each iteration
 Default Max. friction stress TAUMAX          0.10000E+21
 Average contact surface length               0.60000E-06
 Average contact pair depth                   0.18000E-06
 Default pinball region factor PINB           0.25000    
 The resulting pinball region                 0.45000E-07
 Initial penetration/gap is excluded.
 Bonded contact (always) is defined.

 *** NOTE ***                            CP =      11.734   TIME= 18:36:39
 Max.  Initial penetration 1.32348898E-23 was detected between contact   
 element 9907 and target element 9866.                                   
 ****************************************
  

 *** WARNING ***                         CP =      11.734   TIME= 18:36:39
 Maximum contact stiffness 2.809944716E+20 is too big which can cause an 
 accuracy problem, you may scale the force units in the model.           

 *** WARNING ***                         CP =      11.734   TIME= 18:36:39
 Minimum contact depth 2.443885472E-08 is too small which can cause an   
 accuracy problem, you may scale the length units in the model.          
  
  

  
  
     D I S T R I B U T E D   D O M A I N   D E C O M P O S E R
  
  ...Number of elements: 7670
  ...Number of nodes:    12744
  ...Decompose to 2 CPU domains
  ...Element load balance ratio =     1.210


                      L O A D   S T E P   O P T I O N S

   LOAD STEP NUMBER. . . . . . . . . . . . . . . .     1
   TIME AT END OF THE LOAD STEP. . . . . . . . . .  1.0000    
   AUTOMATIC TIME STEPPING . . . . . . . . . . . .    ON
      INITIAL NUMBER OF SUBSTEPS . . . . . . . . .     1
      MAXIMUM NUMBER OF SUBSTEPS . . . . . . . . .    10
      MINIMUM NUMBER OF SUBSTEPS . . . . . . . . .     1
   MAXIMUM NUMBER OF EQUILIBRIUM ITERATIONS. . . .    25
   STEP CHANGE BOUNDARY CONDITIONS . . . . . . . .    NO
   TERMINATE ANALYSIS IF NOT CONVERGED . . . . . .YES (EXIT)  
   CONVERGENCE CONTROLS
      LABEL   REFERENCE    TOLERANCE  NORM     MINREF
       U      0.1000E-08   0.5000E-02   0     -1.000    
   PRINT OUTPUT CONTROLS . . . . . . . . . . . . .NO PRINTOUT
   DATABASE OUTPUT CONTROLS
      ITEM     FREQUENCY   COMPONENT
       ALL       NONE               
      NSOL        ALL               
      RSOL        ALL               
      EANG        ALL               
      ETMP        ALL               
      VENG        ALL               
      STRS        ALL               
      EPEL        ALL               
      EPPL        ALL               
      CONT        ALL               


 *** NOTE ***                            CP =      12.031   TIME= 18:36:40
 Symmetric Deformable- deformable contact pair identified by real        
 constant set 13 and contact element type 13 has been set up.  The       
 companion pair has real constant set ID 14.  Both pairs should have     
 the same behavior.                                                      
 ANSYS will deactivate the current pair and keep its companion pair,     
 resulting in asymmetric contact.                                        
 Small sliding logic is assumed
 Contact algorithm: Augmented Lagrange method
 Contact detection at: Gauss integration point
 Contact stiffness factor FKN                  10.000    
 The resulting initial contact stiffness      0.26104E+21
 Default penetration tolerance factor FTOLN   0.10000    
 The resulting penetration tolerance          0.11109E-07
 Default opening contact stiffness OPSF will be used.
 Default tangent stiffness factor FKT          1.0000    
 Default elastic slip factor SLTOL            0.50000E-02
 The resulting elastic slip tolerance         0.82189E-09
 Update contact stiffness at each iteration
 Default Max. friction stress TAUMAX          0.10000E+21
 Average contact surface length               0.16438E-06
 Average contact pair depth                   0.11109E-06
 Default pinball region factor PINB           0.25000    
 The resulting pinball region                 0.27773E-07
 Initial penetration/gap is excluded.
 Bonded contact (always) is defined.

 *** NOTE ***                            CP =      12.031   TIME= 18:36:40
 Max.  Initial penetration 0 was detected between contact element 8458   
 and target element 8560.                                                
 ****************************************
  

 *** NOTE ***                            CP =      12.031   TIME= 18:36:40
 Symmetric Deformable- deformable contact pair identified by real        
 constant set 14 and contact element type 13 has been set up.  The       
 companion pair has real constant set ID 13.  Both pairs should have     
 the same behavior.                                                      
 ANSYS will keep the current pair and deactivate its companion pair,     
 resulting in asymmetric contact.                                        
 Small sliding logic is assumed
 Contact algorithm: Augmented Lagrange method
 Contact detection at: Gauss integration point
 Contact stiffness factor FKN                  10.000    
 The resulting initial contact stiffness      0.26104E+21
 Default penetration tolerance factor FTOLN   0.10000    
 The resulting penetration tolerance          0.24439E-08
 Default opening contact stiffness OPSF will be used.
 Default tangent stiffness factor FKT          1.0000    
 Default elastic slip factor SLTOL            0.50000E-02
 The resulting elastic slip tolerance         0.31213E-09
 Update contact stiffness at each iteration
 Default Max. friction stress TAUMAX          0.10000E+21
 Average contact surface length               0.62426E-07
 Average contact pair depth                   0.24439E-07
 Default pinball region factor PINB           0.25000    
 The resulting pinball region                 0.61097E-08
 Initial penetration/gap is excluded.
 Bonded contact (always) is defined.

 *** NOTE ***                            CP =      12.031   TIME= 18:36:40
 Max.  Initial penetration 0 was detected between contact element 8517   
 and target element 8406.                                                
 ****************************************
  

 *** NOTE ***                            CP =      12.031   TIME= 18:36:40
 Symmetric Deformable- deformable contact pair identified by real        
 constant set 15 and contact element type 15 has been set up.  The       
 companion pair has real constant set ID 16.  Both pairs should have     
 the same behavior.                                                      
 ANSYS will deactivate the current pair and keep its companion pair,     
 resulting in asymmetric contact.                                        
 Small sliding logic is assumed
 Contact algorithm: Augmented Lagrange method
 Contact detection at: Gauss integration point
 Contact stiffness factor FKN                  10.000    
 The resulting initial contact stiffness      0.23942E+21
 Default penetration tolerance factor FTOLN   0.10000    
 The resulting penetration tolerance          0.12112E-07
 Default opening contact stiffness OPSF will be used.
 Default tangent stiffness factor FKT          1.0000    
 Default elastic slip factor SLTOL            0.50000E-02
 The resulting elastic slip tolerance         0.82639E-09
 Update contact stiffness at each iteration
 Default Max. friction stress TAUMAX          0.10000E+21
 Average contact surface length               0.16528E-06
 Average contact pair depth                   0.12112E-06
 Default pinball region factor PINB           0.25000    
 The resulting pinball region                 0.30281E-07
 Initial penetration/gap is excluded.
 Bonded contact (always) is defined.

 *** NOTE ***                            CP =      12.031   TIME= 18:36:40
 Max.  Initial penetration 0 was detected between contact element 8655   
 and target element 8785.                                                
 ****************************************
  

 *** NOTE ***                            CP =      12.031   TIME= 18:36:40
 Symmetric Deformable- deformable contact pair identified by real        
 constant set 16 and contact element type 15 has been set up.  The       
 companion pair has real constant set ID 15.  Both pairs should have     
 the same behavior.                                                      
 ANSYS will keep the current pair and deactivate its companion pair,     
 resulting in asymmetric contact.                                        
 Small sliding logic is assumed
 Contact algorithm: Augmented Lagrange method
 Contact detection at: Gauss integration point
 Contact stiffness factor FKN                  10.000    
 The resulting initial contact stiffness      0.23942E+21
 Default penetration tolerance factor FTOLN   0.10000    
 The resulting penetration tolerance          0.26261E-08
 Default opening contact stiffness OPSF will be used.
 Default tangent stiffness factor FKT          1.0000    
 Default elastic slip factor SLTOL            0.50000E-02
 The resulting elastic slip tolerance         0.31213E-09
 Update contact stiffness at each iteration
 Default Max. friction stress TAUMAX          0.10000E+21
 Average contact surface length               0.62426E-07
 Average contact pair depth                   0.26261E-07
 Default pinball region factor PINB           0.25000    
 The resulting pinball region                 0.65652E-08
 Initial penetration/gap is excluded.
 Bonded contact (always) is defined.

 *** NOTE ***                            CP =      12.031   TIME= 18:36:40
 Max.  Initial penetration 0 was detected between contact element 8713   
 and target element 8599.                                                
 ****************************************
  

 *** NOTE ***                            CP =      12.031   TIME= 18:36:40
 Symmetric Deformable- deformable contact pair identified by real        
 constant set 19 and contact element type 19 has been set up.  The       
 companion pair has real constant set ID 20.  Both pairs should have     
 the same behavior.                                                      
 ANSYS will deactivate the current pair and keep its companion pair,     
 resulting in asymmetric contact.                                        
 Small sliding logic is assumed
 Contact algorithm: Augmented Lagrange method
 Contact detection at: Gauss integration point
 Contact stiffness factor FKN                  10.000    
 The resulting initial contact stiffness      0.28099E+21
 Default penetration tolerance factor FTOLN   0.10000    
 The resulting penetration tolerance          0.10320E-07
 Default opening contact stiffness OPSF will be used.
 Default tangent stiffness factor FKT          1.0000    
 Default elastic slip factor SLTOL            0.50000E-02
 The resulting elastic slip tolerance         0.75699E-09
 Update contact stiffness at each iteration
 Default Max. friction stress TAUMAX          0.10000E+21
 Average contact surface length               0.15140E-06
 Average contact pair depth                   0.10320E-06
 Default pinball region factor PINB           0.25000    
 The resulting pinball region                 0.25801E-07
 Initial penetration/gap is excluded.
 Bonded contact (always) is defined.

 *** NOTE ***                            CP =      12.031   TIME= 18:36:40
 Max.  Initial penetration 0 was detected between contact element 9042   
 and target element 9170.                                                
 ****************************************
  

 *** NOTE ***                            CP =      12.031   TIME= 18:36:40
 Symmetric Deformable- deformable contact pair identified by real        
 constant set 20 and contact element type 19 has been set up.  The       
 companion pair has real constant set ID 19.  Both pairs should have     
 the same behavior.                                                      
 ANSYS will keep the current pair and deactivate its companion pair,     
 resulting in asymmetric contact.                                        
 Small sliding logic is assumed
 Contact algorithm: Augmented Lagrange method
 Contact detection at: Gauss integration point
 Contact stiffness factor FKN                  10.000    
 The resulting initial contact stiffness      0.28099E+21
 Default penetration tolerance factor FTOLN   0.10000    
 The resulting penetration tolerance          0.26943E-08
 Default opening contact stiffness OPSF will be used.
 Default tangent stiffness factor FKT          1.0000    
 Default elastic slip factor SLTOL            0.50000E-02
 The resulting elastic slip tolerance         0.37864E-09
 Update contact stiffness at each iteration
 Default Max. friction stress TAUMAX          0.10000E+21
 Average contact surface length               0.75727E-07
 Average contact pair depth                   0.26943E-07
 Default pinball region factor PINB           0.25000    
 The resulting pinball region                 0.67357E-08
 Initial penetration/gap is excluded.
 Bonded contact (always) is defined.

 *** NOTE ***                            CP =      12.031   TIME= 18:36:40
 Max.  Initial penetration 0 was detected between contact element 9101   
 and target element 9003.                                                
 ****************************************
  

 *** NOTE ***                            CP =      12.031   TIME= 18:36:40
 Symmetric Deformable- deformable contact pair identified by real        
 constant set 23 and contact element type 23 has been set up.  The       
 companion pair has real constant set ID 24.  Both pairs should have     
 the same behavior.                                                      
 ANSYS will deactivate the current pair and keep its companion pair,     
 resulting in asymmetric contact.                                        
 Small sliding logic is assumed
 Contact algorithm: Augmented Lagrange method
 Contact detection at: Gauss integration point
 Contact stiffness factor FKN                  10.000    
 The resulting initial contact stiffness      0.26268E+21
 Default penetration tolerance factor FTOLN   0.10000    
 The resulting penetration tolerance          0.11040E-07
 Default opening contact stiffness OPSF will be used.
 Default tangent stiffness factor FKT          1.0000    
 Default elastic slip factor SLTOL            0.50000E-02
 The resulting elastic slip tolerance         0.82214E-09
 Update contact stiffness at each iteration
 Default Max. friction stress TAUMAX          0.10000E+21
 Average contact surface length               0.16443E-06
 Average contact pair depth                   0.11040E-06
 Default pinball region factor PINB           0.25000    
 The resulting pinball region                 0.27600E-07
 Initial penetration/gap is excluded.
 Bonded contact (always) is defined.

 *** NOTE ***                            CP =      12.031   TIME= 18:36:40
 Max.  Initial penetration 0 was detected between contact element 9466   
 and target element 9600.                                                
 ****************************************
  

 *** NOTE ***                            CP =      12.031   TIME= 18:36:40
 Symmetric Deformable- deformable contact pair identified by real        
 constant set 24 and contact element type 23 has been set up.  The       
 companion pair has real constant set ID 23.  Both pairs should have     
 the same behavior.                                                      
 ANSYS will keep the current pair and deactivate its companion pair,     
 resulting in asymmetric contact.                                        
 Small sliding logic is assumed
 Contact algorithm: Augmented Lagrange method
 Contact detection at: Gauss integration point
 Contact stiffness factor FKN                  10.000    
 The resulting initial contact stiffness      0.26268E+21
 Default penetration tolerance factor FTOLN   0.10000    
 The resulting penetration tolerance          0.26111E-08
 Default opening contact stiffness OPSF will be used.
 Default tangent stiffness factor FKT          1.0000    
 Default elastic slip factor SLTOL            0.50000E-02
 The resulting elastic slip tolerance         0.36457E-09
 Update contact stiffness at each iteration
 Default Max. friction stress TAUMAX          0.10000E+21
 Average contact surface length               0.72915E-07
 Average contact pair depth                   0.26111E-07
 Default pinball region factor PINB           0.25000    
 The resulting pinball region                 0.65279E-08
 Initial penetration/gap is excluded.
 Bonded contact (always) is defined.

 *** NOTE ***                            CP =      12.031   TIME= 18:36:40
 Max.  Initial penetration 0 was detected between contact element 9513   
 and target element 9460.                                                
 ****************************************
  

  
 *************************************************
  SUMMARY FOR CONTACT PAIR IDENTIFIED BY REAL CONSTANT SET          13

 *** NOTE ***                            CP =      12.750   TIME= 18:36:41
 Contact pair is inactive.                                               
  
 *************************************************
  SUMMARY FOR CONTACT PAIR IDENTIFIED BY REAL CONSTANT SET          14
 Max.  Penetration of 0 has been detected between contact element 8517   
 and target element 8406.                                                
 For total 39 contact elements, there are 39 elements are in contact.    
 There are 39 elements are in sticking.                                  
 Contacting area 1.18E-13.                                               
 Max.  Pinball distance 6.109713681E-09.                                 
 One of the contact searching regions contains at least 10 target        
 elements.                                                               
 Max.  Pressure/force 1.447354499E-03.                                   
 Max.  Normal stiffness 2.610423226E+19.                                 
 Min.  Normal stiffness 2.610423226E+19.                                 
 Max.  Tangential stiffness 1.957817419E+18.                             
 Min.  Tangential stiffness 1.957817419E+18.                             
 *************************************************
  
 *************************************************
  SUMMARY FOR CONTACT PAIR IDENTIFIED BY REAL CONSTANT SET          15

 *** NOTE ***                            CP =      12.750   TIME= 18:36:41
 Contact pair is inactive.                                               
  
 *************************************************
  SUMMARY FOR CONTACT PAIR IDENTIFIED BY REAL CONSTANT SET          16
 Max.  Penetration of 0 has been detected between contact element 8713   
 and target element 8599.                                                
 For total 39 contact elements, there are 39 elements are in contact.    
 There are 39 elements are in sticking.                                  
 Contacting area 1.18E-13.                                               
 Max.  Pinball distance 6.565238002E-09.                                 
 One of the contact searching regions contains at least 11 target        
 elements.                                                               
 Max.  Pressure/force 1.327487618E-03.                                   
 Max.  Normal stiffness 2.39423342E+19.                                  
 Min.  Normal stiffness 2.39423342E+19.                                  
 Max.  Tangential stiffness 1.795675065E+18.                             
 Min.  Tangential stiffness 1.795675065E+18.                             
 *************************************************
  
 *************************************************
  SUMMARY FOR CONTACT PAIR IDENTIFIED BY REAL CONSTANT SET          19

 *** NOTE ***                            CP =      12.750   TIME= 18:36:41
 Contact pair is inactive.                                               
  
 *************************************************
  SUMMARY FOR CONTACT PAIR IDENTIFIED BY REAL CONSTANT SET          20
 Max.  Penetration of 0 has been detected between contact element 9101   
 and target element 9003.                                                
 For total 52 contact elements, there are 52 elements are in contact.    
 There are 52 elements are in sticking.                                  
 Contacting area 1.21748E-13.                                            
 Max.  Pinball distance 6.735686122E-09.                                 
 One of the contact searching regions contains at least 12 target        
 elements.                                                               
 Max.  Pressure/force 1.889949392E-03.                                   
 Max.  Normal stiffness 2.809944716E+19.                                 
 Min.  Normal stiffness 2.809944716E+19.                                 
 Max.  Tangential stiffness 2.107458537E+18.                             
 Min.  Tangential stiffness 2.107458537E+18.                             
 *************************************************
  
 *************************************************
  SUMMARY FOR CONTACT PAIR IDENTIFIED BY REAL CONSTANT SET          23

 *** NOTE ***                            CP =      12.750   TIME= 18:36:41
 Contact pair is inactive.                                               
  
 *************************************************
  SUMMARY FOR CONTACT PAIR IDENTIFIED BY REAL CONSTANT SET          24
 Max.  Penetration of 0 has been detected between contact element 9513   
 and target element 9460.                                                
 For total 54 contact elements, there are 54 elements are in contact.    
 There are 54 elements are in sticking.                                  
 Contacting area 1.21748E-13.                                            
 Max.  Pinball distance 6.527864674E-09.                                 
 One of the contact searching regions contains at least 10 target        
 elements.                                                               
 Max.  Pressure/force 1.701180123E-03.                                   
 Max.  Normal stiffness 2.626848939E+19.                                 
 Min.  Normal stiffness 2.626848939E+19.                                 
 Max.  Tangential stiffness 1.970136704E+18.                             
 Min.  Tangential stiffness 1.970136704E+18.                             
 *************************************************


                         ***********  PRECISE MASS SUMMARY  ***********

   TOTAL RIGID BODY MASS MATRIX ABOUT ORIGIN
               Translational mass               |   Coupled translational/rotational mass
        0.81015E-13    0.0000        0.0000     |     0.0000      -0.93809E-20   0.26331E-35
         0.0000       0.81015E-13    0.0000     |    0.93809E-20    0.0000       0.10119E-33
         0.0000        0.0000       0.81015E-13 |    0.11285E-35  -0.99682E-34    0.0000    
     ------------------------------------------ | ------------------------------------------
                                                |         Rotational mass (inertia)
                                                |    0.22646E-24   0.35807E-32  -0.18351E-40
                                                |    0.35807E-32   0.22646E-24  -0.16152E-39
                                                |   -0.18363E-40  -0.16161E-39   0.44939E-24

   TOTAL MASS = 0.81015E-13
     The mass principal axes coincide with the global Cartesian axes

   CENTER OF MASS (X,Y,Z)=   0.12490E-20  -0.32502E-22  -0.11579E-06

   TOTAL INERTIA ABOUT CENTER OF MASS
        0.22537E-24   0.35807E-32  -0.30068E-40
        0.35807E-32   0.22537E-24  -0.16121E-39
       -0.30068E-40  -0.16121E-39   0.44939E-24
     The inertia principal axes coincide with the global Cartesian axes


  *** MASS SUMMARY BY ELEMENT TYPE ***

  TYPE      MASS
     1  0.109177E-13
     2  0.764280E-16
     3  0.764280E-16
     4  0.764280E-16
     5  0.764280E-16
     6  0.778747E-16
     7  0.778747E-16
     8  0.778747E-16
     9  0.778747E-16
    10  0.694800E-13

 Range of element maximum matrix coefficients in global coordinates
 Maximum = 1125666.04 at element 7861.                                   
 Minimum = 4528.38208 at element 9550.                                   

   *** ELEMENT MATRIX FORMULATION TIMES
     TYPE    NUMBER   ENAME      TOTAL CP  AVE CP

        1      3308  SOLID187      0.391   0.000118
        2        54  SOLID186      0.000   0.000000
        3        54  SOLID186      0.016   0.000289
        4        48  SOLID186      0.000   0.000000
        5        48  SOLID186      0.000   0.000000
        6       223  SOLID187      0.000   0.000000
        7       230  SOLID187      0.016   0.000068
        8       242  SOLID187      0.031   0.000129
        9       243  SOLID187      0.031   0.000129
       10       100  SOLID186      0.031   0.000313
       11        99  CONTA174      0.016   0.000158
       12        99  TARGE170      0.000   0.000000
       13        98  CONTA174      0.016   0.000159
       14        98  TARGE170      0.000   0.000000
       15        98  CONTA174      0.000   0.000000
       16        98  TARGE170      0.000   0.000000
       17        96  CONTA174      0.016   0.000163
       18        96  TARGE170      0.000   0.000000
       19       111  CONTA174      0.000   0.000000
       20       111  TARGE170      0.000   0.000000
       21       107  CONTA174      0.031   0.000292
       22       107  TARGE170      0.000   0.000000
       23       101  CONTA174      0.000   0.000000
       24       101  TARGE170      0.000   0.000000
       25       113  CONTA174      0.031   0.000277
       26       113  TARGE170      0.000   0.000000
       27        40  CONTA174      0.000   0.000000
       28        40  TARGE170      0.000   0.000000
       29      1394  TRANS126      0.016   0.000011
 Time at end of element matrix formulation CP = 12.765625.               

 ALL CURRENT ANSYS DATA WRITTEN TO FILE NAME= file.rdb
  FOR POSSIBLE RESUME FROM THIS POINT
     FORCE CONVERGENCE VALUE  =  0.5094E-15  CRITERION=  0.1000E-02
     CURRENT CONVERGENCE VALUE=   0.000      CRITERION=   0.000    

 DISTRIBUTED SPARSE MATRIX DIRECT SOLVER.
  Number of equations =       33027,    Maximum wavefront =    640

  Local memory allocated for solver              =    122.448 MB
  Local memory required for in-core solution     =    101.437 MB
  Local memory required for out-of-core solution =     47.571 MB

  Total memory allocated for solver              =    237.966 MB
  Total memory required for in-core solution     =    196.859 MB
  Total memory required for out-of-core solution =     92.143 MB

 *** NOTE ***                            CP =      13.438   TIME= 18:36:43
 The Distributed Sparse Matrix Solver is currently running in the        
 in-core memory mode.  This memory mode uses the most amount of memory   
 in order to avoid using the hard drive as much as possible, which most  
 often results in the fastest solution time.  This mode is recommended   
 if enough physical memory is present to accommodate all of the solver   
 data.                                                                   

 *** WARNING ***                         CP =      13.438   TIME= 18:36:43
 Pivoting has been activated for the Distributed Sparse Matrix Solver .  
 The memory required may greatly exceed the predicted amount.  In that   
 event, use the DSPOPTION command to change the memory mode and/or       
 memory size used by the Distributed Sparse Matrix Solver.               

 *** NOTE ***                            CP =      13.438   TIME= 18:36:43
 The system matrix is unsymmetric.                                       
 curEqn=  16131  totEqn=  16131 Job CP sec=     14.094
      Factor Done=  99% Factor Wall sec=      0.968 rate=    2310.9 Mflops
 Distributed sparse solver maximum pivot= 1238605.03 at node 10659 UZ.   
 Distributed sparse solver minimum pivot= 13.3380416 at node 300 UZ.     
 Distributed sparse solver minimum pivot in absolute value= 13.3380416   
 at node 300 UZ.                                                         
     DISP CONVERGENCE VALUE   =  0.6424E-21  CRITERION=  0.5000E-11 <<< CONVERGED
    EQUIL ITER   1 COMPLETED.  NEW TRIANG MATRIX.  MAX DOF INC=  0.1000    
     FORCE CONVERGENCE VALUE  =  0.6732E-11  CRITERION=  0.1000E-02 <<< CONVERGED

[...]
    EQUIL ITER   4 COMPLETED.  NEW TRIANG MATRIX.  MAX DOF INC= -0.4202E-07
     FORCE CONVERGENCE VALUE  =  0.1246E-06  CRITERION=  0.1000E-02 <<< CONVERGED
     CURRENT CONVERGENCE VALUE=   0.000      CRITERION=   0.000     <<< CONVERGED
     DISP CONVERGENCE VALUE   =  0.9228E-08  CRITERION=  0.5000E-11
    EQUIL ITER   5 COMPLETED.  NEW TRIANG MATRIX.  MAX DOF INC=  0.9228E-08
     FORCE CONVERGENCE VALUE  =  0.4762E-07  CRITERION=  0.1000E-02 <<< CONVERGED
     CURRENT CONVERGENCE VALUE=   0.000      CRITERION=   0.000     <<< CONVERGED
     DISP CONVERGENCE VALUE   =  0.9670E-08  CRITERION=  0.5000E-11
    EQUIL ITER   6 COMPLETED.  NEW TRIANG MATRIX.  MAX DOF INC=  0.9670E-08
     FORCE CONVERGENCE VALUE  =  0.1660E-07  CRITERION=  0.1000E-02 <<< CONVERGED
     CURRENT CONVERGENCE VALUE=   0.000      CRITERION=   0.000     <<< CONVERGED
     DISP CONVERGENCE VALUE   =  0.9335E-08  CRITERION=  0.5000E-11
    EQUIL ITER   7 COMPLETED.  NEW TRIANG MATRIX.  MAX DOF INC=  0.9335E-08
     FORCE CONVERGENCE VALUE  =  0.5287E-08  CRITERION=  0.1000E-02 <<< CONVERGED
     CURRENT CONVERGENCE VALUE=   0.000      CRITERION=   0.000     <<< CONVERGED
     DISP CONVERGENCE VALUE   =  0.7859E-08  CRITERION=  0.5000E-11
    EQUIL ITER   8 COMPLETED.  NEW TRIANG MATRIX.  MAX DOF INC=  0.7859E-08
     FORCE CONVERGENCE VALUE  =  0.1610E-08  CRITERION=  0.1000E-02 <<< CONVERGED
     CURRENT CONVERGENCE VALUE=   0.000      CRITERION=   0.000     <<< CONVERGED
     DISP CONVERGENCE VALUE   =  0.4692E-08  CRITERION=  0.5000E-11
    EQUIL ITER   9 COMPLETED.  NEW TRIANG MATRIX.  MAX DOF INC=  0.4692E-08
     FORCE CONVERGENCE VALUE  =  0.4406E-09  CRITERION=  0.1000E-02 <<< CONVERGED
     CURRENT CONVERGENCE VALUE=   0.000      CRITERION=   0.000     <<< CONVERGED
     DISP CONVERGENCE VALUE   =  0.2483E-08  CRITERION=  0.5000E-11
    EQUIL ITER  10 COMPLETED.  NEW TRIANG MATRIX.  MAX DOF INC=  0.2483E-08
     FORCE CONVERGENCE VALUE  =  0.1230E-09  CRITERION=  0.1000E-02 <<< CONVERGED
     CURRENT CONVERGENCE VALUE=   0.000      CRITERION=   0.000     <<< CONVERGED
     DISP CONVERGENCE VALUE   =  0.1527E-08  CRITERION=  0.5000E-11
    EQUIL ITER  11 COMPLETED.  NEW TRIANG MATRIX.  MAX DOF INC=  0.1527E-08
     FORCE CONVERGENCE VALUE  =  0.4473E-10  CRITERION=  0.1000E-02 <<< CONVERGED
     CURRENT CONVERGENCE VALUE=   0.000      CRITERION=   0.000     <<< CONVERGED
     DISP CONVERGENCE VALUE   =  0.1963E-08  CRITERION=  0.5000E-11
    EQUIL ITER  12 COMPLETED.  NEW TRIANG MATRIX.  MAX DOF INC=  0.1963E-08
     FORCE CONVERGENCE VALUE  =  0.6693E-10  CRITERION=  0.1000E-02 <<< CONVERGED
     CURRENT CONVERGENCE VALUE=   0.000      CRITERION=   0.000     <<< CONVERGED
     DISP CONVERGENCE VALUE   =  0.1517E-08  CRITERION=  0.5000E-11
    EQUIL ITER  13 COMPLETED.  NEW TRIANG MATRIX.  MAX DOF INC= -0.1517E-08
     FORCE CONVERGENCE VALUE  =  0.3812E-10  CRITERION=  0.1000E-02 <<< CONVERGED
     CURRENT CONVERGENCE VALUE=   0.000      CRITERION=   0.000     <<< CONVERGED
     DISP CONVERGENCE VALUE   =  0.5530E-08  CRITERION=  0.5000E-11
    EQUIL ITER  14 COMPLETED.  NEW TRIANG MATRIX.  MAX DOF INC=  0.5530E-08
     FORCE CONVERGENCE VALUE  =  0.4846E-09  CRITERION=  0.1000E-02 <<< CONVERGED
     CURRENT CONVERGENCE VALUE=   0.000      CRITERION=   0.000     <<< CONVERGED
     DISP CONVERGENCE VALUE   =  0.3036E-08  CRITERION=  0.5000E-11
    EQUIL ITER  15 COMPLETED.  NEW TRIANG MATRIX.  MAX DOF INC= -0.3036E-08
     FORCE CONVERGENCE VALUE  =  0.1252E-09  CRITERION=  0.1000E-02 <<< CONVERGED
     CURRENT CONVERGENCE VALUE=   0.000      CRITERION=   0.000     <<< CONVERGED
     DISP CONVERGENCE VALUE   =  0.1675E-08  CRITERION=  0.5000E-11
    EQUIL ITER  16 COMPLETED.  NEW TRIANG MATRIX.  MAX DOF INC= -0.1675E-08
     FORCE CONVERGENCE VALUE  =  0.4409E-10  CRITERION=  0.1000E-02 <<< CONVERGED
     CURRENT CONVERGENCE VALUE=   0.000      CRITERION=   0.000     <<< CONVERGED
     DISP CONVERGENCE VALUE   =  0.2076E-08  CRITERION=  0.5000E-11
    EQUIL ITER  17 COMPLETED.  NEW TRIANG MATRIX.  MAX DOF INC= -0.2076E-08
     FORCE CONVERGENCE VALUE  =  0.7527E-10  CRITERION=  0.1000E-02 <<< CONVERGED
     CURRENT CONVERGENCE VALUE=   0.000      CRITERION=   0.000     <<< CONVERGED
     DISP CONVERGENCE VALUE   =  0.1426E-08  CRITERION=  0.5000E-11
    EQUIL ITER  18 COMPLETED.  NEW TRIANG MATRIX.  MAX DOF INC=  0.1426E-08
     FORCE CONVERGENCE VALUE  =  0.3746E-10  CRITERION=  0.1000E-02 <<< CONVERGED
     CURRENT CONVERGENCE VALUE=   0.000      CRITERION=   0.000     <<< CONVERGED
     DISP CONVERGENCE VALUE   =  0.3803E-07  CRITERION=  0.5000E-11
    EQUIL ITER  19 COMPLETED.  NEW TRIANG MATRIX.  MAX DOF INC=  0.3803E-07
     FORCE CONVERGENCE VALUE  =  0.1419E-07  CRITERION=  0.1000E-02 <<< CONVERGED
     CURRENT CONVERGENCE VALUE=   0.000      CRITERION=   0.000     <<< CONVERGED
     DISP CONVERGENCE VALUE   =  0.2453E-07  CRITERION=  0.5000E-11
    EQUIL ITER  20 COMPLETED.  NEW TRIANG MATRIX.  MAX DOF INC= -0.2453E-07
     FORCE CONVERGENCE VALUE  =  0.2524E-08  CRITERION=  0.1000E-02 <<< CONVERGED
     CURRENT CONVERGENCE VALUE=   0.000      CRITERION=   0.000     <<< CONVERGED
     DISP CONVERGENCE VALUE   =  0.7659E-08  CRITERION=  0.5000E-11
    EQUIL ITER  21 COMPLETED.  NEW TRIANG MATRIX.  MAX DOF INC= -0.7659E-08
     FORCE CONVERGENCE VALUE  =  0.5642E-09  CRITERION=  0.1000E-02 <<< CONVERGED
     CURRENT CONVERGENCE VALUE=   0.000      CRITERION=   0.000     <<< CONVERGED
     DISP CONVERGENCE VALUE   =  0.3284E-08  CRITERION=  0.5000E-11
    EQUIL ITER  22 COMPLETED.  NEW TRIANG MATRIX.  MAX DOF INC= -0.3284E-08
     FORCE CONVERGENCE VALUE  =  0.1434E-09  CRITERION=  0.1000E-02 <<< CONVERGED
     CURRENT CONVERGENCE VALUE=   0.000      CRITERION=   0.000     <<< CONVERGED
     DISP CONVERGENCE VALUE   =  0.1754E-08  CRITERION=  0.5000E-11
    EQUIL ITER  23 COMPLETED.  NEW TRIANG MATRIX.  MAX DOF INC= -0.1754E-08
     FORCE CONVERGENCE VALUE  =  0.4775E-10  CRITERION=  0.1000E-02 <<< CONVERGED
     CURRENT CONVERGENCE VALUE=   0.000      CRITERION=   0.000     <<< CONVERGED
     DISP CONVERGENCE VALUE   =  0.1811E-08  CRITERION=  0.5000E-11
    EQUIL ITER  24 COMPLETED.  NEW TRIANG MATRIX.  MAX DOF INC= -0.1811E-08
     FORCE CONVERGENCE VALUE  =  0.5647E-10  CRITERION=  0.1000E-02 <<< CONVERGED
     CURRENT CONVERGENCE VALUE=   0.000      CRITERION=   0.000     <<< CONVERGED
     DISP CONVERGENCE VALUE   =  0.1521E-08  CRITERION=  0.5000E-11
    EQUIL ITER  25 COMPLETED.  NEW TRIANG MATRIX.  MAX DOF INC=  0.1521E-08

 *** ERROR ***                           CP =     389.094   TIME= 18:44:05
 Solution not converged at time 41.9333333 (load step 42 substep 3).     
  Run terminated.                                                        
  
 *************************************************
  SUMMARY FOR CONTACT PAIR IDENTIFIED BY REAL CONSTANT SET          13

 *** NOTE ***                            CP =     389.094   TIME= 18:44:05
 Contact pair is inactive.                                               
  
 *************************************************
  SUMMARY FOR CONTACT PAIR IDENTIFIED BY REAL CONSTANT SET          14
 Max.  Penetration of -6.949258115E-13 has been detected between contact 
 element 8553 and target element 8452.                                   
  
 Max.  Geometrical gap of 9.818669428E-13 has been detected between      
 contact element 8555 and target element 8408.                           
 For total 39 contact elements, there are 39 elements are in contact.    
 There are 39 elements are in sticking.                                  
 Contacting area 1.18E-13.                                               
 Contact element 8555 has Max.  Elastic slip distance of                 
 1.108391927E-11.                                                        
 Max.  Total sliding distance 1.108391927E-11.                           
 Max.  Pinball distance 6.109713681E-09.                                 
 One of the contact searching regions contains at least 8 target         
 elements.                                                               
 Max.  Pressure/force -2563088.27.                                       
 Max.  Friction stress/force 2170029.02.                                 
 Max.  Normal stiffness 2.610423226E+18.                                 
 Min.  Normal stiffness 2.610423226E+18.                                 
 Max.  Tangential stiffness 1.957817419E+17.                             
 Min.  Tangential stiffness 1.957817419E+17.                             
 *************************************************
  
 *************************************************
  SUMMARY FOR CONTACT PAIR IDENTIFIED BY REAL CONSTANT SET          15

 *** NOTE ***                            CP =     389.094   TIME= 18:44:05
 Contact pair is inactive.                                               
  
 *************************************************
  SUMMARY FOR CONTACT PAIR IDENTIFIED BY REAL CONSTANT SET          16
 Max.  Penetration of -7.383230178E-13 has been detected between contact 
 element 8715 and target element 8648.                                   
  
 Max.  Geometrical gap of 9.914024726E-13 has been detected between      
 contact element 8713 and target element 8603.                           
 For total 39 contact elements, there are 39 elements are in contact.    
 There are 39 elements are in sticking.                                  
 Contacting area 1.18E-13.                                               
 Contact element 8713 has Max.  Elastic slip distance of                 
 1.128083362E-11.                                                        
 Max.  Total sliding distance 1.128083362E-11.                           
 Max.  Pinball distance 6.565238002E-09.                                 
 One of the contact searching regions contains at least 9 target         
 elements.                                                               
 Max.  Pressure/force -2373648.93.                                       
 Max.  Friction stress/force 2025671.16.                                 
 Max.  Normal stiffness 2.39423342E+18.                                  
 Min.  Normal stiffness 2.39423342E+18.                                  
 Max.  Tangential stiffness 1.795675065E+17.                             
 Min.  Tangential stiffness 1.795675065E+17.                             
 *************************************************
  
 *************************************************
  SUMMARY FOR CONTACT PAIR IDENTIFIED BY REAL CONSTANT SET          19

 *** NOTE ***                            CP =     389.094   TIME= 18:44:05
 Contact pair is inactive.                                               
  
 *************************************************
  SUMMARY FOR CONTACT PAIR IDENTIFIED BY REAL CONSTANT SET          20
 Max.  Penetration of -9.97479376E-13 has been detected between contact  
 element 9111 and target element 8989.                                   
 For total 52 contact elements, there are 52 elements are in contact.    
 There are 52 elements are in sticking.                                  
 Contacting area 1.21748E-13.                                            
 Contact element 9111 has Max.  Elastic slip distance of                 
 1.195600861E-11.                                                        
 Max.  Total sliding distance 1.195600861E-11.                           
 Max.  Pinball distance 6.735686122E-09.                                 
 One of the contact searching regions contains at least 8 target         
 elements.                                                               
 Max.  Pressure/force 2802861.9.                                         
 Max.  Friction stress/force 2519679.24.                                 
 Max.  Normal stiffness 2.809944716E+18.                                 
 Min.  Normal stiffness 2.809944716E+18.                                 
 Max.  Tangential stiffness 2.107458537E+17.                             
 Min.  Tangential stiffness 2.107458537E+17.                             
 *************************************************
  
 *************************************************
  SUMMARY FOR CONTACT PAIR IDENTIFIED BY REAL CONSTANT SET          23

 *** NOTE ***                            CP =     389.094   TIME= 18:44:05
 Contact pair is inactive.                                               
  
 *************************************************
  SUMMARY FOR CONTACT PAIR IDENTIFIED BY REAL CONSTANT SET          24
 Max.  Penetration of -9.535702449E-13 has been detected between contact 
 element 9526 and target element 9452.                                   
 For total 54 contact elements, there are 54 elements are in contact.    
 There are 54 elements are in sticking.                                  
 Contacting area 1.21748E-13.                                            
 Contact element 9526 has Max.  Elastic slip distance of                 
 1.216161773E-11.                                                        
 Max.  Total sliding distance 1.216161773E-11.                           
 Max.  Pinball distance 6.527864674E-09.                                 
 One of the contact searching regions contains at least 8 target         
 elements.                                                               
 Max.  Pressure/force 2504884.99.                                        
 Max.  Friction stress/force 2396004.95.                                 
 Max.  Normal stiffness 2.626848939E+18.                                 
 Min.  Normal stiffness 2.626848939E+18.                                 
 Max.  Tangential stiffness 1.970136704E+17.                             
 Min.  Tangential stiffness 1.970136704E+17.                             
 *************************************************

 *** WARNING ***                         CP =     389.094   TIME= 18:44:05
 The unconverged solution (identified as time 42 substep 999999) is      
 output for analysis debug purposes.  Results should not be used for     
 any other purpose.                                                      




         R E S T A R T   I N F O R M A T I O N

 REASON FOR TERMINATION. . . . . . . . . .UNCONVERGED SOLUTION                    
 FILES NEEDED FOR RESTARTING . . . . . . .  file0.Rnnn
                                            file.ldhi
                                            file.rdb
 TIME OF LAST SOLUTION . . . . . . . . . .  41.833    
    TIME AT START OF THE LOAD STEP . . . .  41.000    
    TIME AT END OF THE LOAD STEP . . . . .  42.000    
 NOTE: FOR CONVERGING SOLUTIONS, ADDITIONAL EQUILIBRIUM ITERATIONS MAY BE
       ADDED IN THE RESTART (NEQIT COMMAND) USING THE RESTART FILE file0.Rnnn                                                                                                                                                                                                                                                          

 ALL CURRENT ANSYS DATA WRITTEN TO FILE NAME= file.db
  FOR POSSIBLE RESUME FROM THIS POINT





 NUMBER OF WARNING MESSAGES ENCOUNTERED=         47
 NUMBER OF ERROR   MESSAGES ENCOUNTERED=          1



 ***** PROBLEM TERMINATED BY INDICATED ERROR(S) OR BY END OF INPUT DATA *****

 *** NOTE ***                            CP =     392.141   TIME= 18:44:10
 The solution for the current simulation was performed using 2 cores.    
 The parallel performance of this simulation on this hardware indicates  
 that this simulation would benefit from using additional CPU cores.     
 Consider using more CPU cores, which may require additional HPC         
 licenses, when running this simulation again on the same hardware.      

+--------- D I S T R I B U T E D   A N S Y S   S T A T I S T I C S ------------+

Release: 2020 R1            Build: 20.1       Update: UP20191203   Platform: WINDOWS x64 
Date Run: 04/05/2020   Time: 18:44     Process ID: 11648
Operating System: Windows 10  (Build: 18363)

Processor Model: Intel(R) Core(TM) i5-6360U CPU @ 2.00GHz

Compiler: Intel(R) FORTRAN Compiler Version 19.0.0  (Build: 20190206)
          Intel(R) C/C++ Compiler Version 19.0.0  (Build: 20190206)
          Intel(R) Math Kernel Library Version 2019.0.3 Product Build 20190125

Number of machines requested            :    1
Total number of cores available         :    2
Number of physical cores available      :    2
Number of processes requested           :    2
Number of threads per process requested :    1
Total number of cores requested         :    2 (Distributed Memory Parallel)               
MPI Type: INTELMPI
MPI Version: Intel(R) MPI Library 2018 Update 3 for Windows* OS


GPU Acceleration: Not Requested

Job Name: file0
Input File: dummy.dat

  Core                Machine Name   Working Directory
 -----------------------------------------------------
     0             DESKTOP-H2RNGL6   C:\Users\Akash Levy\Documents\NEM-Relay-CAD\_ProjectScratch\ScrF127
     1             DESKTOP-H2RNGL6   C:\Users\Akash Levy\Documents\NEM-Relay-CAD\_ProjectScratch\ScrF127
 
Latency time from master to core     1 =  102.873 microseconds
 
Communication speed from master to core     1 =   846.15 MB/sec

Total CPU time for main thread                    :      387.2 seconds
Total CPU time summed for all threads             :      392.1 seconds

Elapsed time spent obtaining a license            :        2.2 seconds
Elapsed time spent pre-processing model (/PREP7)  :        9.2 seconds
Elapsed time spent solution - preprocessing       :        4.1 seconds
Elapsed time spent computing solution             :      439.4 seconds
Elapsed time spent solution - postprocessing      :        3.0 seconds
Elapsed time spent post-processing model (/POST1) :        0.0 seconds
 
Equation solver used                              :            Sparse (unsymmetric)
Equation solver computational rate                :       18.2 Gflops
Equation solver effective I/O rate                :        6.5 GB/sec

Maximum total memory used                         :      338.0 MB
Maximum total memory allocated                    :     3136.0 MB
Total physical memory available                   :          4 GB

Total amount of I/O written to disk               :       12.5 GB
Total amount of I/O read from disk                :       28.8 GB

+------ E N D   D I S T R I B U T E D   A N S Y S   S T A T I S T I C S -------+


 *---------------------------------------------------------------------------*
 |                                                                           |
 |                       DISTRIBUTED ANSYS RUN COMPLETED                     |
 |                                                                           |
 |---------------------------------------------------------------------------|
 |                                                                           |
 | Ansys 2020 R1               Build 20.1         UP20191203     WINDOWS x64 |
 |                                                                           |
 |---------------------------------------------------------------------------|
 |                                                                           |
 | Database Requested(-db)  1024 MB    Scratch Memory Requested      1024 MB |
 | Maximum Database Used      11 MB    Maximum Scratch Memory Used    161 MB |
 |                                                                           |
 |---------------------------------------------------------------------------|
 |                                                                           |
 |        CP Time      (sec) =        392.125       Time  =  18:44:10        |
 |        Elapsed Time (sec) =        466.000       Date  =  04/05/2020      |
 |                                                                           |
 *---------------------------------------------------------------------------*
