
 ANSYS Academic Teaching Introductory              


 *------------------------------------------------------------------*
 |                                                                  |
 |   W E L C O M E   T O   T H E   A N S Y S (R)  P R O G R A M     |
 |                                                                  |
 *------------------------------------------------------------------*




 ***************************************************************
 *            ANSYS 2020 R1          LEGAL NOTICES             *
 ***************************************************************
 *                                                             *
 * Copyright 1971-2020 ANSYS, Inc.  All rights reserved.       *
 * Unauthorized use, distribution or duplication is            *
 * prohibited.                                                 *
 *                                                             *
 * Ansys is a registered trademark of ANSYS, Inc. or its       *
 * subsidiaries in the United States or other countries.       *
 * See the ANSYS, Inc. online documentation or the ANSYS, Inc. *
 * documentation CD or online help for the complete Legal      *
 * Notice.                                                     *
 *                                                             *
 ***************************************************************
 *                                                             *
 * THIS ANSYS SOFTWARE PRODUCT AND PROGRAM DOCUMENTATION       *
 * INCLUDE TRADE SECRETS AND CONFIDENTIAL AND PROPRIETARY      *
 * PRODUCTS OF ANSYS, INC., ITS SUBSIDIARIES, OR LICENSORS.    *
 * The software products and documentation are furnished by    *
 * ANSYS, Inc. or its subsidiaries under a software license    *
 * agreement that contains provisions concerning               *
 * non-disclosure, copying, length and nature of use,          *
 * compliance with exporting laws, warranties, disclaimers,    *
 * limitations of liability, and remedies, and other           *
 * provisions.  The software products and documentation may be *
 * used, disclosed, transferred, or copied only in accordance  *
 * with the terms and conditions of that software license      *
 * agreement.                                                  *
 *                                                             *
 * ANSYS, Inc. is a UL registered                              *
 * ISO 9001:2015 company.                                      *
 *                                                             *
 ***************************************************************
 *                                                             *
 * This product is subject to U.S. laws governing export and   *
 * re-export.                                                  *
 *                                                             *
 * For U.S. Government users, except as specifically granted   *
 * by the ANSYS, Inc. software license agreement, the use,     *
 * duplication, or disclosure by the United States Government  *
 * is subject to restrictions stated in the ANSYS, Inc.        *
 * software license agreement and FAR 12.212 (for non-DOD      *
 * licenses).                                                  *
 *                                                             *
 ***************************************************************

 2020 R1 
     
 Point Releases and Patches installed:   
     
 Academic Student 2020 R1
 Aqwa 2020 R1
 FENSAP-ICE 2020 R1  


          *****  ANSYS COMMAND LINE ARGUMENTS  *****
  BATCH MODE REQUESTED (-b)    = NOLIST
  INPUT FILE COPY MODE (-c)    = COPY
  DISTRIBUTED MEMORY PARALLEL REQUESTED
       2 PARALLEL PROCESSES REQUESTED WITH SINGLE THREAD PER PROCESS
    TOTAL OF     2 CORES REQUESTED
  DESIGNXPLORER REQUESTED
  INPUT FILE NAME              = C:\Users\AkashLevy\Documents\GitHub\NEM-Relay-CAD\_ProjectScratch\ScrAF92\dummy.dat
  OUTPUT FILE NAME             = C:\Users\AkashLevy\Documents\GitHub\NEM-Relay-CAD\_ProjectScratch\ScrAF92\solve.out
  START-UP FILE MODE           = NOREAD
  STOP FILE MODE               = NOREAD

 RELEASE= 2020 R1              BUILD= 20.1      UP20191203   VERSION=WINDOWS x64 
 CURRENT JOBNAME=file0  12:08:11  APR 02, 2020 CP=      0.469


 PARAMETER _DS_PROGRESS =     999.0000000    

 /INPUT FILE= ds.dat  LINE=       0



 *** NOTE ***                            CP =       0.766   TIME= 12:08:12
 The /CONFIG,NOELDB command is not valid in a Distributed ANSYS          
 solution.  Command is ignored.                                          

 *GET  _WALLSTRT  FROM  ACTI  ITEM=TIME WALL  VALUE=  12.1366667    

 TITLE= 
 relay--Modal (E5)                                                             


 SET PARAMETER DIMENSIONS ON  _WB_PROJECTSCRATCH_DIR
  TYPE=STRI  DIMENSIONS=      248        1        1

 PARAMETER _WB_PROJECTSCRATCH_DIR(1) = C:\Users\AkashLevy\Documents\GitHub\NEM-Relay-CAD\_ProjectScratch\ScrAF92\

 SET PARAMETER DIMENSIONS ON  _WB_SOLVERFILES_DIR
  TYPE=STRI  DIMENSIONS=      248        1        1

 PARAMETER _WB_SOLVERFILES_DIR(1) = C:\Users\AkashLevy\Documents\GitHub\NEM-Relay-CAD\relay_files\dp0\SYS-2\MECH\

 SET PARAMETER DIMENSIONS ON  _WB_USERFILES_DIR
  TYPE=STRI  DIMENSIONS=      248        1        1

 PARAMETER _WB_USERFILES_DIR(1) = C:\Users\AkashLevy\Documents\GitHub\NEM-Relay-CAD\relay_files\user_files\
 --- Data in consistent MKS units. See Solving Units in the help system for more

 MKS UNITS SPECIFIED FOR INTERNAL    
  LENGTH        (l)  = METER (M)
  MASS          (M)  = KILOGRAM (KG)
  TIME          (t)  = SECOND (SEC)
  TEMPERATURE   (T)  = CELSIUS (C)
  TOFFSET            = 273.0
  CHARGE        (Q)  = COULOMB
  FORCE         (f)  = NEWTON (N) (KG-M/SEC2)
  HEAT               = JOULE (N-M)

  PRESSURE           = PASCAL (NEWTON/M**2)
  ENERGY        (W)  = JOULE (N-M)
  POWER         (P)  = WATT (N-M/SEC)
  CURRENT       (i)  = AMPERE (COULOMBS/SEC)
  CAPACITANCE   (C)  = FARAD
  INDUCTANCE    (L)  = HENRY
  MAGNETIC FLUX      = WEBER
  RESISTANCE    (R)  = OHM
  ELECTRIC POTENTIAL = VOLT

 INPUT  UNITS ARE ALSO SET TO MKS 

 *** ANSYS - ENGINEERING ANALYSIS SYSTEM  RELEASE 2020 R1          20.1     ***
 DISTRIBUTED ANSYS Academic Teaching Introductory              

 01055371  VERSION=WINDOWS x64   12:08:12  APR 02, 2020 CP=      0.766

 relay--Modal (E5)                                                             



          ***** ANSYS ANALYSIS DEFINITION (PREP7) *****
 *********** Nodes for the whole assembly ***********
 *********** Elements for Body 1 "relay\Solid" ***********
 *********** Send User Defined Coordinate System(s) ***********
 *********** Set Reference Temperature ***********
 *********** Send Materials ***********
 *********** Fixed Supports ***********


 ***** ROUTINE COMPLETED *****  CP =         0.922


 --- Number of total nodes = 10724
 --- Number of contact elements = 0
 --- Number of spring elements = 0
 --- Number of bearing elements = 0
 --- Number of solid elements = 5460
 --- Number of condensed parts = 0
 --- Number of total elements = 5460

 *GET  _WALLBSOL  FROM  ACTI  ITEM=TIME WALL  VALUE=  12.1366667    

 *****  ANSYS SOLUTION ROUTINE  *****


 PERFORM A MODAL ANALYSIS
  THIS WILL BE A NEW ANALYSIS

 PARAMETER _THICKRATIO =     0.000000000    


 USE SYM. BLOCK LANCZOS MODE EXTRACTION METHOD
  EXTRACT     6 MODES
  NORMALIZE THE MODE SHAPES TO THE MASS MATRIX

 ERASE THE CURRENT DATABASE OUTPUT CONTROL TABLE.


 WRITE ALL  ITEMS TO THE DATABASE WITH A FREQUENCY OF NONE
   FOR ALL APPLICABLE ENTITIES

 WRITE NSOL ITEMS TO THE DATABASE WITH A FREQUENCY OF ALL 
   FOR ALL APPLICABLE ENTITIES

 WRITE ETMP ITEMS TO THE DATABASE WITH A FREQUENCY OF ALL 
   FOR ALL APPLICABLE ENTITIES


 EXPAND ALL EXTRACTED MODES
  DO NOT CALCULATE ELEMENT RESULTS

 DO NOT COMBINE ELEMENT SAVE DATA FILES (.esav) AFTER DISTRIBUTED PARALLEL SOLUTION

 DO NOT COMBINE ELEMENT MATRIX FILES (.emat) AFTER DISTRIBUTED PARALLEL SOLUTION

 DO NOT COMBINE ASSEMBLED MATRIX FILES (.full) AFTER DISTRIBUTED PARALLEL SOLUTION

 *GET  ANSINTER_  FROM  ACTI  ITEM=INT        VALUE=  0.00000000    

 *IF  ANSINTER_                         ( =   0.00000     )  NE  
      0                                 ( =   0.00000     )  THEN    

 *ENDIF

 *** NOTE ***                            CP =       0.922   TIME= 12:08:12
 The automatic domain decomposition logic has selected the MESH domain   
 decomposition method with 2 processes per solution.                     

 *****  ANSYS SOLVE    COMMAND  *****

 *** WARNING ***                         CP =       0.953   TIME= 12:08:12
 Element shape checking is currently inactive.  Issue SHPP,ON or         
 SHPP,WARN to reactivate, if desired.                                    

 *** NOTE ***                            CP =       0.984   TIME= 12:08:12
 The model data was checked and warning messages were found.             
  Please review output or errors file (                                  
 C:\Users\AkashLevy\Documents\GitHub\NEM-Relay-CAD\_ProjectScratch\ScrAF 
 F92\file0.err ) for these warning messages.                             

 *** SELECTION OF ELEMENT TECHNOLOGIES FOR APPLICABLE ELEMENTS ***
      --- GIVE SUGGESTIONS AND RESET THE KEY OPTIONS ---

 ELEMENT TYPE    1 IS SOLID187. IT IS NOT ASSOCIATED WITH FULLY INCOMPRESSIBLE
 HYPERELASTIC MATERIALS. NO SUGGESTION IS AVAILABLE AND NO RESETTING IS NEEDED.



 *** ANSYS - ENGINEERING ANALYSIS SYSTEM  RELEASE 2020 R1          20.1     ***
 DISTRIBUTED ANSYS Academic Teaching Introductory              

 01055371  VERSION=WINDOWS x64   12:08:12  APR 02, 2020 CP=      0.984

 relay--Modal (E5)                                                             



                       S O L U T I O N   O P T I O N S

   PROBLEM DIMENSIONALITY. . . . . . . . . . . . .3-D                  
   DEGREES OF FREEDOM. . . . . . UX   UY   UZ  
   ANALYSIS TYPE . . . . . . . . . . . . . . . . .MODAL                
      EXTRACTION METHOD. . . . . . . . . . . . . .BLOCK LANCZOS
   OFFSET TEMPERATURE FROM ABSOLUTE ZERO . . . . .  273.15    
   NUMBER OF MODES TO EXTRACT. . . . . . . . . . .     6
   GLOBALLY ASSEMBLED MATRIX . . . . . . . . . . .SYMMETRIC  
   NUMBER OF MODES TO EXPAND . . . . . . . . . . .ALL
   ELEMENT RESULTS CALCULATION . . . . . . . . . .OFF

 *** NOTE ***                            CP =       0.984   TIME= 12:08:12
 The conditions for direct assembly have been met.  No .emat or .erot    
 files will be produced.                                                 

  
  
     D I S T R I B U T E D   D O M A I N   D E C O M P O S E R
  
  ...Number of elements: 5460
  ...Number of nodes:    10724
  ...Decompose to 2 CPU domains
  ...Element load balance ratio =     1.000


                      L O A D   S T E P   O P T I O N S

   LOAD STEP NUMBER. . . . . . . . . . . . . . . .     1
   THERMAL STRAINS INCLUDED IN THE LOAD VECTOR . .   YES
   PRINT OUTPUT CONTROLS . . . . . . . . . . . . .NO PRINTOUT
   DATABASE OUTPUT CONTROLS
      ITEM     FREQUENCY   COMPONENT
       ALL       NONE               
      NSOL        ALL               
      ETMP        ALL               



                         ***********  PRECISE MASS SUMMARY  ***********

   TOTAL RIGID BODY MASS MATRIX ABOUT ORIGIN
               Translational mass               |   Coupled translational/rotational mass
        0.11050E-13    0.0000        0.0000     |     0.0000       0.10498E-20   0.75232E-36
         0.0000       0.11050E-13    0.0000     |   -0.10498E-20    0.0000      -0.18056E-34
         0.0000        0.0000       0.11050E-13 |   -0.75232E-36   0.18056E-34    0.0000    
     ------------------------------------------ | ------------------------------------------
                                                |         Rotational mass (inertia)
                                                |    0.16158E-25   0.35807E-32   0.89190E-40
                                                |    0.35807E-32   0.16158E-25   0.22874E-39
                                                |    0.89235E-40   0.22874E-39   0.32029E-25

   TOTAL MASS = 0.11050E-13
     The mass principal axes coincide with the global Cartesian axes

   CENTER OF MASS (X,Y,Z)=  -0.16340E-20  -0.68085E-22   0.95006E-07

   TOTAL INERTIA ABOUT CENTER OF MASS
        0.16058E-25   0.35807E-32   0.87474E-40
        0.35807E-32   0.16058E-25   0.22867E-39
        0.87474E-40   0.22867E-39   0.32029E-25
     The inertia principal axes coincide with the global Cartesian axes


  *** MASS SUMMARY BY ELEMENT TYPE ***

  TYPE      MASS
     1  0.110497E-13

 Range of element maximum matrix coefficients in global coordinates
 Maximum = 103911.963 at element 3407.                                   
 Minimum = 5195.82996 at element 35.                                     

   *** ELEMENT MATRIX FORMULATION TIMES
     TYPE    NUMBER   ENAME      TOTAL CP  AVE CP

        1      5460  SOLID187      1.312   0.000240
 Time at end of element matrix formulation CP = 2.03125.                 

  BLOCK LANCZOS CALCULATION OF UP TO     6 EIGENVECTORS.
  NUMBER OF EQUATIONS              =        31920
  MAXIMUM WAVEFRONT                =          288
  MAXIMUM MODES STORED             =            6
  MINIMUM EIGENVALUE               =  0.00000E+00
  MAXIMUM EIGENVALUE               =  0.10000E+31


  Local memory allocated for solver              =     58.600 MB
  Local memory required for in-core solution     =     55.883 MB
  Local memory required for out-of-core solution =     22.919 MB

  Total memory allocated for solver              =    110.381 MB
  Total memory required for in-core solution     =    105.265 MB
  Total memory required for out-of-core solution =     42.964 MB

 *** NOTE ***                            CP =       3.734   TIME= 12:08:18
 The Distributed Sparse Matrix Solver used by the Block Lanczos          
 eigensolver is currently running in the in-core memory mode.  This      
 memory mode uses the most amount of memory in order to avoid using the  
 hard drive as much as possible, which most often results in the         
 fastest solution time.  This mode is recommended if enough physical     
 memory is present to accommodate all of the solver data.                

 *** ANSYS - ENGINEERING ANALYSIS SYSTEM  RELEASE 2020 R1          20.1     ***
 DISTRIBUTED ANSYS Academic Teaching Introductory              

 01055371  VERSION=WINDOWS x64   12:08:24  APR 02, 2020 CP=      5.969

 relay--Modal (E5)                                                             



 *** FREQUENCIES FROM BLOCK LANCZOS ITERATION ***

  MODE    FREQUENCY (HERTZ)      


    1     7792802.184210    
    2     12959999.53281    
    3     12965064.17521    
    4     59367196.51953    
    5     60005299.71378    
    6     60074420.18598    

 *** ANSYS - ENGINEERING ANALYSIS SYSTEM  RELEASE 2020 R1          20.1     ***
 DISTRIBUTED ANSYS Academic Teaching Introductory              

 01055371  VERSION=WINDOWS x64   12:08:25  APR 02, 2020 CP=      6.062

 relay--Modal (E5)                                                             





          ***** PARTICIPATION FACTOR CALCULATION *****  X  DIRECTION
                                                                                  CUMULATIVE     RATIO EFF.MASS
  MODE   FREQUENCY       PERIOD      PARTIC.FACTOR     RATIO    EFFECTIVE MASS   MASS FRACTION   TO TOTAL MASS
     1    0.779280E+07   0.12832E-06  -0.20590E-10    0.000227    0.423950E-21    0.514880E-07    0.383676E-07
     2    0.129600E+08   0.77160E-07   0.26778E-09    0.002953    0.717086E-19    0.876038E-05    0.648966E-05
     3    0.129651E+08   0.77130E-07   0.18847E-10    0.000208    0.355202E-21    0.880352E-05    0.321459E-07
     4    0.593672E+08   0.16844E-07  -0.11068E-08    0.012206    0.122492E-17    0.157568E-03    0.110856E-03
     5    0.600053E+08   0.16665E-07   0.90675E-07    1.000000    0.822197E-14    0.998702        0.744092    
     6    0.600744E+08   0.16646E-07  -0.32690E-08    0.036052    0.106866E-16     1.00000        0.967144E-03
 -----------------------------------------------------------------------------------------------------------------
   sum                                                            0.823396E-14                    0.745176    
 -----------------------------------------------------------------------------------------------------------------



          ***** PARTICIPATION FACTOR CALCULATION *****  Y  DIRECTION
                                                                                  CUMULATIVE     RATIO EFF.MASS
  MODE   FREQUENCY       PERIOD      PARTIC.FACTOR     RATIO    EFFECTIVE MASS   MASS FRACTION   TO TOTAL MASS
     1    0.779280E+07   0.12832E-06   0.22801E-10    0.000252    0.519869E-21    0.631420E-07    0.470484E-07
     2    0.129600E+08   0.77160E-07  -0.27759E-10    0.000306    0.770535E-21    0.156729E-06    0.697338E-07
     3    0.129651E+08   0.77130E-07   0.24708E-09    0.002726    0.610468E-19    0.757131E-05    0.552476E-05
     4    0.593672E+08   0.16844E-07   0.21249E-08    0.023440    0.451539E-17    0.555999E-03    0.408645E-03
     5    0.600053E+08   0.16665E-07   0.32910E-08    0.036304    0.108308E-16    0.187148E-02    0.980192E-03
     6    0.600744E+08   0.16646E-07   0.90653E-07    1.000000    0.821793E-14     1.00000        0.743726    
 -----------------------------------------------------------------------------------------------------------------
   sum                                                            0.823334E-14                    0.745120    
 -----------------------------------------------------------------------------------------------------------------



          ***** PARTICIPATION FACTOR CALCULATION *****  Z  DIRECTION
                                                                                  CUMULATIVE     RATIO EFF.MASS
  MODE   FREQUENCY       PERIOD      PARTIC.FACTOR     RATIO    EFFECTIVE MASS   MASS FRACTION   TO TOTAL MASS
     1    0.779280E+07   0.12832E-06   0.93977E-07    1.000000    0.883173E-14    0.999998        0.799275    
     2    0.129600E+08   0.77160E-07   0.97685E-10    0.001039    0.954230E-20    0.999999        0.863582E-06
     3    0.129651E+08   0.77130E-07   0.40541E-10    0.000431    0.164353E-20     1.00000        0.148741E-06
     4    0.593672E+08   0.16844E-07   0.48272E-11    0.000051    0.233021E-22     1.00000        0.210885E-08
     5    0.600053E+08   0.16665E-07   0.37053E-10    0.000394    0.137295E-20     1.00000        0.124253E-06
     6    0.600744E+08   0.16646E-07  -0.49211E-10    0.000524    0.242174E-20     1.00000        0.219169E-06
 -----------------------------------------------------------------------------------------------------------------
   sum                                                            0.883174E-14                    0.799276    
 -----------------------------------------------------------------------------------------------------------------



          ***** PARTICIPATION FACTOR CALCULATION *****ROTX DIRECTION
                                                                                  CUMULATIVE     RATIO EFF.MASS
  MODE   FREQUENCY       PERIOD      PARTIC.FACTOR     RATIO    EFFECTIVE MASS   MASS FRACTION   TO TOTAL MASS
     1    0.779280E+07   0.12832E-06    0.0000        0.000000     0.00000         0.00000         0.00000    
     2    0.129600E+08   0.77160E-07   0.76697E-13    1.000000    0.588247E-26    0.702310        0.364066    
     3    0.129651E+08   0.77130E-07   0.49175E-13    0.641161    0.241821E-26    0.991021        0.149663    
     4    0.593672E+08   0.16844E-07    0.0000        0.000000     0.00000        0.991021         0.00000    
     5    0.600053E+08   0.16665E-07    0.0000        0.000000     0.00000        0.991021         0.00000    
     6    0.600744E+08   0.16646E-07  -0.86680E-14    0.113016    0.751346E-28    0.999991        0.465007E-02
 -----------------------------------------------------------------------------------------------------------------
   sum                                                            0.837589E-26                    0.518383    
 -----------------------------------------------------------------------------------------------------------------



          ***** PARTICIPATION FACTOR CALCULATION *****ROTY DIRECTION
                                                                                  CUMULATIVE     RATIO EFF.MASS
  MODE   FREQUENCY       PERIOD      PARTIC.FACTOR     RATIO    EFFECTIVE MASS   MASS FRACTION   TO TOTAL MASS
     1    0.779280E+07   0.12832E-06    0.0000        0.000000     0.00000         0.00000         0.00000    
     2    0.129600E+08   0.77160E-07  -0.49172E-13    0.641097    0.241792E-26    0.288646        0.149645    
     3    0.129651E+08   0.77130E-07   0.76700E-13    1.000000    0.588295E-26    0.990938        0.364096    
     4    0.593672E+08   0.16844E-07    0.0000        0.000000     0.00000        0.990938         0.00000    
     5    0.600053E+08   0.16665E-07   0.87124E-14    0.113590    0.759060E-28    0.999999        0.469782E-02
     6    0.600744E+08   0.16646E-07    0.0000        0.000000     0.00000        0.999999         0.00000    
 -----------------------------------------------------------------------------------------------------------------
   sum                                                            0.837679E-26                    0.518439    
 -----------------------------------------------------------------------------------------------------------------



          ***** PARTICIPATION FACTOR CALCULATION *****ROTZ DIRECTION
                                                                                  CUMULATIVE     RATIO EFF.MASS
  MODE   FREQUENCY       PERIOD      PARTIC.FACTOR     RATIO    EFFECTIVE MASS   MASS FRACTION   TO TOTAL MASS
     1    0.779280E+07   0.12832E-06    0.0000        0.000000     0.00000         0.00000         0.00000    
     2    0.129600E+08   0.77160E-07    0.0000        0.000000     0.00000         0.00000         0.00000    
     3    0.129651E+08   0.77130E-07    0.0000        0.000000     0.00000         0.00000         0.00000    
     4    0.593672E+08   0.16844E-07    0.0000        0.000000     0.00000         0.00000         0.00000    
     5    0.600053E+08   0.16665E-07    0.0000        0.000000     0.00000         0.00000         0.00000    
     6    0.600744E+08   0.16646E-07    0.0000        0.000000     0.00000         0.00000         0.00000    





 *** NOTE ***                            CP =       6.062   TIME= 12:08:25
 The modes requested are mass normalized (Nrmkey on MODOPT).  However,   
 the modal masses and kinetic energies below are calculated with unit    
 normalized modes.                                                       

        ***** MODAL MASSES, KINETIC ENERGIES, AND TRANSLATIONAL EFFECTIVE MASSES SUMMARY *****

                                                                         EFFECTIVE MASS
  MODE  FREQUENCY   MODAL MASS     KENE      |      X-DIR      RATIO%   Y-DIR      RATIO%   Z-DIR      RATIO% 
     1  0.7793E+07  0.7948E-14   9.527       |    0.4239E-21    0.00  0.5199E-21    0.00  0.8832E-14    0.00
     2  0.1296E+08  0.1531E-14   5.075       |    0.7171E-19    0.00  0.7705E-21    0.00  0.9542E-20    0.00
     3  0.1297E+08  0.1531E-14   5.080       |    0.3552E-21    0.00  0.6105E-19    0.00  0.1644E-20    0.00
     4  0.5937E+08  0.1466E-14   102.0       |    0.1225E-17    0.01  0.4515E-17    0.00  0.2330E-22    0.00
     5  0.6001E+08  0.7456E-14   529.9       |    0.8222E-14   74.41  0.1083E-16    0.00  0.1373E-20    0.00
     6  0.6007E+08  0.7569E-14   539.2       |    0.1069E-16    0.10  0.8218E-14    0.00  0.2422E-20    0.00
 --------------------------------------------------------------------------------------------------------------
   sum                                       |    0.8234E-14   74.52  0.8233E-14   74.51  0.8832E-14   79.93
 --------------------------------------------------------------------------------------------------------------


 *** ANSYS BINARY FILE STATISTICS
  BUFFER SIZE USED= 16384
       10.062 MB WRITTEN ON ASSEMBLED MATRIX FILE: file0.full
        1.125 MB WRITTEN ON MODAL MATRIX FILE: file0.mode
        1.938 MB WRITTEN ON RESULTS FILE: file0.rst
 *************** Write FE CONNECTORS *********

 WRITE OUT CONSTRAINT EQUATIONS TO FILE= file.ce                                                                                                                                                                                                                                                             

 *GET  _NMODALSOLPROC  FROM  ACTI  ITEM=NUMC       VALUE=  2.00000000    

 FINISH SOLUTION PROCESSING


 ***** ROUTINE COMPLETED *****  CP =         6.281



 PRINTOUT RESUMED BY /GOP

 *GET  _WALLASOL  FROM  ACTI  ITEM=TIME WALL  VALUE=  12.1405556    

 *** ANSYS - ENGINEERING ANALYSIS SYSTEM  RELEASE 2020 R1          20.1     ***
 DISTRIBUTED ANSYS Academic Teaching Introductory              

 01055371  VERSION=WINDOWS x64   12:08:26  APR 02, 2020 CP=      6.328

 relay--Modal (E5)                                                             



          ***** ANSYS RESULTS INTERPRETATION (POST1) *****

 *** NOTE ***                            CP =       6.359   TIME= 12:08:26
 Reading results into the database (SET command) will update the current 
 displacement and force boundary conditions in the database with the     
 values from the results file for that load set.  Note that any          
 subsequent solutions will use these values unless action is taken to    
 either SAVE the current values or not overwrite them (/EXIT,NOSAVE).    

 PRINTOUT RESUMED BY /GOP

 Set Encoding of XML File to:ISO-8859-1

 Set Output of XML File to:
     PARM,     ,     ,     ,     ,     ,     ,     ,     ,     ,     ,     ,
         ,     ,     ,     ,     ,     ,     ,

 DATABASE WRITTEN ON FILE  parm.xml                                                                                                                                                                                                                                                            

 EXIT THE ANSYS POST1 DATABASE PROCESSOR


 ***** ROUTINE COMPLETED *****  CP =         6.547



 PRINTOUT RESUMED BY /GOP

 *GET  _WALLDONE  FROM  ACTI  ITEM=TIME WALL  VALUE=  12.1408333    

 PARAMETER _PREPTIME =     0.000000000    

 PARAMETER _SOLVTIME =     14.00000000    

 PARAMETER _POSTTIME =     1.000000000    

 PARAMETER _TOTALTIM =     15.00000000    

 *GET  _DLBRATIO  FROM  ACTI  ITEM=SOLU DLBR  VALUE=  1.00000000    

 *GET  _COMBTIME  FROM  ACTI  ITEM=SOLU COMB  VALUE= 0.477424400    
 --- Number of total nodes = 10724
 --- Number of total elements = 5460
 --- Element load balance ratio = 1
 --- Time to combine distributed files = 0.4774244

 EXIT ANSYS WITHOUT SAVING DATABASE


 NUMBER OF WARNING MESSAGES ENCOUNTERED=          1
 NUMBER OF ERROR   MESSAGES ENCOUNTERED=          0

+--------- D I S T R I B U T E D   A N S Y S   S T A T I S T I C S ------------+

Release: 2020 R1            Build: 20.1       Update: UP20191203   Platform: WINDOWS x64 
Date Run: 04/02/2020   Time: 12:08     Process ID: 9364
Operating System: Windows 10  (Build: 18363)

Processor Model: Intel(R) Core(TM)2 Quad  CPU   Q8200  @ 2.33GHz

Compiler: Intel(R) FORTRAN Compiler Version 19.0.0  (Build: 20190206)
          Intel(R) C/C++ Compiler Version 19.0.0  (Build: 20190206)
          Intel(R) Math Kernel Library Version 2019.0.3 Product Build 20190125

Number of machines requested            :    1
Total number of cores available         :    4
Number of physical cores available      :    4
Number of processes requested           :    2
Number of threads per process requested :    1
Total number of cores requested         :    2 (Distributed Memory Parallel)               
MPI Type: INTELMPI
MPI Version: Intel(R) MPI Library 2018 Update 3 for Windows* OS


GPU Acceleration: Not Requested

Job Name: file0
Input File: dummy.dat

  Core                Machine Name   Working Directory
 -----------------------------------------------------
     0             DESKTOP-8U7FQ8E   C:\Users\AkashLevy\Documents\GitHub\NEM-Relay-CAD\_ProjectScratch\ScrAF92
     1             DESKTOP-8U7FQ8E   C:\Users\AkashLevy\Documents\GitHub\NEM-Relay-CAD\_ProjectScratch\ScrAF92
 
Latency time from master to core     1 =    2.329 microseconds
 
Communication speed from master to core     1 =   856.32 MB/sec

Total CPU time for main thread                    :        6.4 seconds
Total CPU time summed for all threads             :        6.6 seconds

Elapsed time spent obtaining a license            :        1.0 seconds
Elapsed time spent pre-processing model (/PREP7)  :        0.1 seconds
Elapsed time spent solution - preprocessing       :        0.3 seconds
Elapsed time spent computing solution             :       13.2 seconds
Elapsed time spent solution - postprocessing      :        0.5 seconds
Elapsed time spent post-processing model (/POST1) :        0.7 seconds
 
Eigensolver used                                  :            Block Lanczos
Equation solver computational rate                :        1.0 Gflops
Equation solver effective I/O rate                :        0.6 GB/sec

Maximum total memory used                         :      351.0 MB
Maximum total memory allocated                    :     3136.0 MB
Total physical memory available                   :          4 GB

Total amount of I/O written to disk               :        0.1 GB
Total amount of I/O read from disk                :        0.0 GB

+------ E N D   D I S T R I B U T E D   A N S Y S   S T A T I S T I C S -------+


 *---------------------------------------------------------------------------*
 |                                                                           |
 |                       DISTRIBUTED ANSYS RUN COMPLETED                     |
 |                                                                           |
 |---------------------------------------------------------------------------|
 |                                                                           |
 | Ansys 2020 R1               Build 20.1         UP20191203     WINDOWS x64 |
 |                                                                           |
 |---------------------------------------------------------------------------|
 |                                                                           |
 | Database Requested(-db)  1024 MB    Scratch Memory Requested      1024 MB |
 | Maximum Database Used       6 MB    Maximum Scratch Memory Used    173 MB |
 |                                                                           |
 |---------------------------------------------------------------------------|
 |                                                                           |
 |        CP Time      (sec) =          6.594       Time  =  12:08:28        |
 |        Elapsed Time (sec) =         19.000       Date  =  04/02/2020      |
 |                                                                           |
 *---------------------------------------------------------------------------*
