
 ANSYS Mechanical Enterprise                       


 *------------------------------------------------------------------*
 |                                                                  |
 |   W E L C O M E   T O   T H E   A N S Y S (R)  P R O G R A M     |
 |                                                                  |
 *------------------------------------------------------------------*




 ***************************************************************
 *            ANSYS 2020 R1          LEGAL NOTICES             *
 ***************************************************************
 *                                                             *
 * Copyright 1971-2020 ANSYS, Inc.  All rights reserved.       *
 * Unauthorized use, distribution or duplication is            *
 * prohibited.                                                 *
 *                                                             *
 * Ansys is a registered trademark of ANSYS, Inc. or its       *
 * subsidiaries in the United States or other countries.       *
 * See the ANSYS, Inc. online documentation or the ANSYS, Inc. *
 * documentation CD or online help for the complete Legal      *
 * Notice.                                                     *
 *                                                             *
 ***************************************************************
 *                                                             *
 * THIS ANSYS SOFTWARE PRODUCT AND PROGRAM DOCUMENTATION       *
 * INCLUDE TRADE SECRETS AND CONFIDENTIAL AND PROPRIETARY      *
 * PRODUCTS OF ANSYS, INC., ITS SUBSIDIARIES, OR LICENSORS.    *
 * The software products and documentation are furnished by    *
 * ANSYS, Inc. or its subsidiaries under a software license    *
 * agreement that contains provisions concerning               *
 * non-disclosure, copying, length and nature of use,          *
 * compliance with exporting laws, warranties, disclaimers,    *
 * limitations of liability, and remedies, and other           *
 * provisions.  The software products and documentation may be *
 * used, disclosed, transferred, or copied only in accordance  *
 * with the terms and conditions of that software license      *
 * agreement.                                                  *
 *                                                             *
 * ANSYS, Inc. is a UL registered                              *
 * ISO 9001:2015 company.                                      *
 *                                                             *
 ***************************************************************
 *                                                             *
 * This product is subject to U.S. laws governing export and   *
 * re-export.                                                  *
 *                                                             *
 * For U.S. Government users, except as specifically granted   *
 * by the ANSYS, Inc. software license agreement, the use,     *
 * duplication, or disclosure by the United States Government  *
 * is subject to restrictions stated in the ANSYS, Inc.        *
 * software license agreement and FAR 12.212 (for non-DOD      *
 * licenses).                                                  *
 *                                                             *
 ***************************************************************

 2020 R1 
     
 Point Releases and Patches installed:   
     
 ANSYS, Inc. Products 2020 R1
 SpaceClaim 2020 R1  
 AIM 2020 R1 
 Live (includes SpaceClaim) 2020 R1  
 Autodyn 2020 R1 
 LS-DYNA 2020 R1 
 CFX (includes CFD-Post) 2020 R1 
 Chemkin 2020 R1 
 EnSight 2020 R1 
 FENSAP-ICE 2020 R1  
 Fluent (includes CFD-Post) 2020 R1  
 Forte 2020 R1   
 Polyflow (includes CFD-Post) 2020 R1
 TurboGrid 2020 R1   
 ICEM CFD 2020 R1
 Aqwa 2020 R1
 Customization Files for User Programmable Features 2020 R1  
 Mechanical Products 2020 R1 
 Additive 2020 R1
 ANSYS Sherlock 2020 R1  
 Icepak (includes CFD-Post) 2020 R1  
 ACIS Geometry Interface 2020 R1 
 AutoCAD Geometry Interface 2020 R1  
 Catia, Version 4 Geometry Interface 2020 R1 
 Catia, Version 5 Geometry Interface 2020 R1 
 Catia, Version 6 Geometry Interface 2020 R1 
 Creo Elements/Direct Modeling Geometry Interface 2020 R1
 Creo Parametric Geometry Interface 2020 R1  
 Inventor Geometry Interface 2020 R1 
 JTOpen Geometry Interface 2020 R1   
 NX Geometry Interface 2020 R1   
 Parasolid Geometry Interface  2020 R1   
 Solid Edge Geometry Interface 2020 R1   
 SOLIDWORKS Geometry Interface 2020 R1   
 ANSYS, Inc. License Manager 2020 R1 


          *****  ANSYS COMMAND LINE ARGUMENTS  *****
  BATCH MODE REQUESTED (-b)    = NOLIST
  INPUT FILE COPY MODE (-c)    = COPY
  DISTRIBUTED MEMORY PARALLEL REQUESTED
       2 PARALLEL PROCESSES REQUESTED WITH SINGLE THREAD PER PROCESS
    TOTAL OF     2 CORES REQUESTED
  INPUT FILE NAME              = C:\Users\Akash Levy\Documents\NEM-Relay-CAD\ansys\_ProjectScratch\Scr487B\dummy.dat
  OUTPUT FILE NAME             = C:\Users\Akash Levy\Documents\NEM-Relay-CAD\ansys\_ProjectScratch\Scr487B\solve.out
  START-UP FILE MODE           = NOREAD
  STOP FILE MODE               = NOREAD

 RELEASE= 2020 R1              BUILD= 20.1      UP20191203   VERSION=WINDOWS x64 
 CURRENT JOBNAME=file0  10:12:42  APR 07, 2020 CP=      0.516


 PARAMETER _DS_PROGRESS =     999.0000000    

 /INPUT FILE= ds.dat  LINE=       0



 *** NOTE ***                            CP =       0.750   TIME= 10:12:43
 The /CONFIG,NOELDB command is not valid in a Distributed ANSYS          
 solution.  Command is ignored.                                          

 *GET  _WALLSTRT  FROM  ACTI  ITEM=TIME WALL  VALUE=  10.2119444    

 TITLE= 
 relay--Modal (C5)                                                             


 SET PARAMETER DIMENSIONS ON  _WB_PROJECTSCRATCH_DIR
  TYPE=STRI  DIMENSIONS=      248        1        1

 PARAMETER _WB_PROJECTSCRATCH_DIR(1) = C:\Users\Akash Levy\Documents\NEM-Relay-CAD\ansys\_ProjectScratch\Scr487B\

 SET PARAMETER DIMENSIONS ON  _WB_SOLVERFILES_DIR
  TYPE=STRI  DIMENSIONS=      248        1        1

 PARAMETER _WB_SOLVERFILES_DIR(1) = C:\Users\Akash Levy\Documents\NEM-Relay-CAD\ansys\relay_files\dp0\SYS-12\MECH\

 SET PARAMETER DIMENSIONS ON  _WB_USERFILES_DIR
  TYPE=STRI  DIMENSIONS=      248        1        1

 PARAMETER _WB_USERFILES_DIR(1) = C:\Users\Akash Levy\Documents\NEM-Relay-CAD\ansys\relay_files\user_files\
 --- Data in consistent MKS units. See Solving Units in the help system for more

 MKS UNITS SPECIFIED FOR INTERNAL    
  LENGTH        (l)  = METER (M)
  MASS          (M)  = KILOGRAM (KG)
  TIME          (t)  = SECOND (SEC)
  TEMPERATURE   (T)  = CELSIUS (C)
  TOFFSET            = 273.0
  CHARGE        (Q)  = COULOMB
  FORCE         (f)  = NEWTON (N) (KG-M/SEC2)
  HEAT               = JOULE (N-M)

  PRESSURE           = PASCAL (NEWTON/M**2)
  ENERGY        (W)  = JOULE (N-M)
  POWER         (P)  = WATT (N-M/SEC)
  CURRENT       (i)  = AMPERE (COULOMBS/SEC)
  CAPACITANCE   (C)  = FARAD
  INDUCTANCE    (L)  = HENRY
  MAGNETIC FLUX      = WEBER
  RESISTANCE    (R)  = OHM
  ELECTRIC POTENTIAL = VOLT

 INPUT  UNITS ARE ALSO SET TO MKS 

 *** ANSYS - ENGINEERING ANALYSIS SYSTEM  RELEASE 2020 R1          20.1     ***
 DISTRIBUTED ANSYS Mechanical Enterprise                       

 20120530  VERSION=WINDOWS x64   10:12:43  APR 07, 2020 CP=      0.750

 relay--Modal (C5)                                                             



          ***** ANSYS ANALYSIS DEFINITION (PREP7) *****
 *********** Nodes for the whole assembly ***********
 *********** Elements for Body 1 "Relay" ***********
 *********** Elements for Body 2 "Contact 1" ***********
 *********** Elements for Body 3 "Contact 2" ***********
 *********** Elements for Body 4 "Contact 3" ***********
 *********** Elements for Body 5 "Contact 4" ***********
 *********** Elements for Body 6 "Contact 5" ***********
 *********** Elements for Body 7 "Contact 6" ***********
 *********** Elements for Body 8 "Contact 7" ***********
 *********** Elements for Body 9 "Contact 8" ***********
 *********** Elements for Body 10 "Substrate" ***********
 *********** Send User Defined Coordinate System(s) ***********
 *********** Set Reference Temperature ***********
 *********** Send Materials ***********
 *********** Create Contact "Contact Region 11" ***********
             Real Constant Set For Above Contact Is 12 & 11
 *********** Create Contact "Contact Region 12" ***********
             Real Constant Set For Above Contact Is 14 & 13
 *********** Create Contact "Contact Region 13" ***********
             Real Constant Set For Above Contact Is 16 & 15
 *********** Create Contact "Contact Region 14" ***********
             Real Constant Set For Above Contact Is 18 & 17
 *********** Create Contact "Contact Region 15" ***********
             Real Constant Set For Above Contact Is 20 & 19
 *********** Create Contact "Contact Region 16" ***********
             Real Constant Set For Above Contact Is 22 & 21
 *********** Create Contact "Contact Region 17" ***********
             Real Constant Set For Above Contact Is 24 & 23
 *********** Create Contact "Contact Region 18" ***********
             Real Constant Set For Above Contact Is 26 & 25
 *********** Create Contact "Contact Region 19" ***********
             Real Constant Set For Above Contact Is 28 & 27
 *********** Send Named Selection as Node Component ***********
 *********** Fixed Supports ***********


 ***** ROUTINE COMPLETED *****  CP =         1.172


 --- Number of total nodes = 11080
 --- Number of contact elements = 1302
 --- Number of spring elements = 0
 --- Number of bearing elements = 0
 --- Number of solid elements = 4431
 --- Number of condensed parts = 0
 --- Number of total elements = 5733

 *GET  _WALLBSOL  FROM  ACTI  ITEM=TIME WALL  VALUE=  10.2119444    

 *****  ANSYS SOLUTION ROUTINE  *****


 PERFORM A MODAL ANALYSIS
  THIS WILL BE A NEW ANALYSIS

 PARAMETER _THICKRATIO =     0.000000000    


 USE SYM. BLOCK LANCZOS MODE EXTRACTION METHOD
  EXTRACT     6 MODES
  NORMALIZE THE MODE SHAPES TO THE MASS MATRIX

 ERASE THE CURRENT DATABASE OUTPUT CONTROL TABLE.


 WRITE ALL  ITEMS TO THE DATABASE WITH A FREQUENCY OF NONE
   FOR ALL APPLICABLE ENTITIES

 WRITE NSOL ITEMS TO THE DATABASE WITH A FREQUENCY OF ALL 
   FOR ALL APPLICABLE ENTITIES

 WRITE ETMP ITEMS TO THE DATABASE WITH A FREQUENCY OF ALL 
   FOR ALL APPLICABLE ENTITIES


 EXPAND ALL EXTRACTED MODES
  DO NOT CALCULATE ELEMENT RESULTS

 DO NOT COMBINE ELEMENT SAVE DATA FILES (.esav) AFTER DISTRIBUTED PARALLEL SOLUTION

 DO NOT COMBINE ELEMENT MATRIX FILES (.emat) AFTER DISTRIBUTED PARALLEL SOLUTION

 DO NOT COMBINE ASSEMBLED MATRIX FILES (.full) AFTER DISTRIBUTED PARALLEL SOLUTION

 *GET  ANSINTER_  FROM  ACTI  ITEM=INT        VALUE=  0.00000000    

 *IF  ANSINTER_                         ( =   0.00000     )  NE  
      0                                 ( =   0.00000     )  THEN    

 *ENDIF

 *** NOTE ***                            CP =       1.250   TIME= 10:12:43
 The automatic domain decomposition logic has selected the MESH domain   
 decomposition method with 2 processes per solution.                     

 *****  ANSYS SOLVE    COMMAND  *****

 *** WARNING ***                         CP =       1.281   TIME= 10:12:43
 Element shape checking is currently inactive.  Issue SHPP,ON or         
 SHPP,WARN to reactivate, if desired.                                    

 *** NOTE ***                            CP =       1.359   TIME= 10:12:44
 The model data was checked and warning messages were found.             
  Please review output or errors file ( C:\Users\Akash                   
 Levy\Documents\NEM-Relay-CAD\ansys\_ProjectScratch\Scr487B\file0.err )  
 for these warning messages.                                             

 *** SELECTION OF ELEMENT TECHNOLOGIES FOR APPLICABLE ELEMENTS ***
      --- GIVE SUGGESTIONS AND RESET THE KEY OPTIONS ---

 ELEMENT TYPE    1 IS SOLID187. IT IS NOT ASSOCIATED WITH FULLY INCOMPRESSIBLE
 HYPERELASTIC MATERIALS. NO SUGGESTION IS AVAILABLE AND NO RESETTING IS NEEDED.

 ELEMENT TYPE    2 IS SOLID186. KEYOPT(2)=0 IS SUGGESTED AND HAS BEEN RESET.
  KEYOPT(1-12)=    0    0    0    0    0    0    0    0    0    0    0    0

 ELEMENT TYPE    3 IS SOLID186. KEYOPT(2)=0 IS SUGGESTED AND HAS BEEN RESET.
  KEYOPT(1-12)=    0    0    0    0    0    0    0    0    0    0    0    0

 ELEMENT TYPE    4 IS SOLID186. KEYOPT(2)=0 IS SUGGESTED AND HAS BEEN RESET.
  KEYOPT(1-12)=    0    0    0    0    0    0    0    0    0    0    0    0

 ELEMENT TYPE    5 IS SOLID186. KEYOPT(2)=0 IS SUGGESTED AND HAS BEEN RESET.
  KEYOPT(1-12)=    0    0    0    0    0    0    0    0    0    0    0    0

 ELEMENT TYPE    6 IS SOLID187. IT IS NOT ASSOCIATED WITH FULLY INCOMPRESSIBLE
 HYPERELASTIC MATERIALS. NO SUGGESTION IS AVAILABLE AND NO RESETTING IS NEEDED.

 ELEMENT TYPE    7 IS SOLID187. IT IS NOT ASSOCIATED WITH FULLY INCOMPRESSIBLE
 HYPERELASTIC MATERIALS. NO SUGGESTION IS AVAILABLE AND NO RESETTING IS NEEDED.

 ELEMENT TYPE    8 IS SOLID187. IT IS NOT ASSOCIATED WITH FULLY INCOMPRESSIBLE
 HYPERELASTIC MATERIALS. NO SUGGESTION IS AVAILABLE AND NO RESETTING IS NEEDED.

 ELEMENT TYPE    9 IS SOLID187. IT IS NOT ASSOCIATED WITH FULLY INCOMPRESSIBLE
 HYPERELASTIC MATERIALS. NO SUGGESTION IS AVAILABLE AND NO RESETTING IS NEEDED.

 ELEMENT TYPE   10 IS SOLID186. KEYOPT(2)=0 IS SUGGESTED AND HAS BEEN RESET.
  KEYOPT(1-12)=    0    0    0    0    0    0    0    0    0    0    0    0



 *** ANSYS - ENGINEERING ANALYSIS SYSTEM  RELEASE 2020 R1          20.1     ***
 DISTRIBUTED ANSYS Mechanical Enterprise                       

 20120530  VERSION=WINDOWS x64   10:12:44  APR 07, 2020 CP=      1.406

 relay--Modal (C5)                                                             



                       S O L U T I O N   O P T I O N S

   PROBLEM DIMENSIONALITY. . . . . . . . . . . . .3-D                  
   DEGREES OF FREEDOM. . . . . . UX   UY   UZ  
   ANALYSIS TYPE . . . . . . . . . . . . . . . . .MODAL                
      EXTRACTION METHOD. . . . . . . . . . . . . .BLOCK LANCZOS
   OFFSET TEMPERATURE FROM ABSOLUTE ZERO . . . . .  273.15    
   NUMBER OF MODES TO EXTRACT. . . . . . . . . . .     6
   GLOBALLY ASSEMBLED MATRIX . . . . . . . . . . .SYMMETRIC  
   NUMBER OF MODES TO EXPAND . . . . . . . . . . .ALL
   ELEMENT RESULTS CALCULATION . . . . . . . . . .OFF

 *** NOTE ***                            CP =       1.453   TIME= 10:12:44
 The conditions for direct assembly have been met.  No .emat or .erot    
 files will be produced.                                                 

 *** NOTE ***                            CP =       1.672   TIME= 10:12:44
 Symmetric Deformable- deformable contact pair identified by real        
 constant set 11 and contact element type 11 has been set up.  The       
 companion pair has real constant set ID 12.  Both pairs should have     
 the same behavior.                                                      
 ANSYS will deactivate the current pair and keep its companion pair,     
 resulting in asymmetric contact.                                        
 Linear contact is defined
 Contact algorithm: Augmented Lagrange method
 Contact detection at: Gauss integration point
 Contact stiffness factor FKN                  10.000    
 The resulting initial contact stiffness      0.21047E+21
 Default penetration tolerance factor FTOLN   0.10000    
 The resulting penetration tolerance          0.13779E-07
 Default opening contact stiffness OPSF will be used.
 Default tangent stiffness factor FKT          1.0000    
 Use constant contact stiffness
 Default Max. friction stress TAUMAX          0.10000E+21
 Average contact surface length               0.26204E-06
 Average contact pair depth                   0.13779E-06
 Default pinball region factor PINB           0.25000    
 The resulting pinball region                 0.34447E-07
 Initial penetration/gap is excluded.
 Bonded contact (always) is defined.

 *** NOTE ***                            CP =       1.688   TIME= 10:12:44
 Max.  Initial penetration 0 was detected between contact element 8012   
 and target element 8093.                                                
 ****************************************
  

 *** NOTE ***                            CP =       1.688   TIME= 10:12:44
 Symmetric Deformable- deformable contact pair identified by real        
 constant set 12 and contact element type 11 has been set up.  The       
 companion pair has real constant set ID 11.  Both pairs should have     
 the same behavior.                                                      
 ANSYS will keep the current pair and deactivate its companion pair,     
 resulting in asymmetric contact.                                        
 Linear contact is defined
 Contact algorithm: Augmented Lagrange method
 Contact detection at: Gauss integration point
 Contact stiffness factor FKN                  10.000    
 The resulting initial contact stiffness      0.21047E+21
 Default penetration tolerance factor FTOLN   0.10000    
 The resulting penetration tolerance          0.28801E-08
 Default opening contact stiffness OPSF will be used.
 Default tangent stiffness factor FKT          1.0000    
 Use constant contact stiffness
 Default Max. friction stress TAUMAX          0.10000E+21
 Average contact surface length               0.63931E-07
 Average contact pair depth                   0.28801E-07
 Default pinball region factor PINB           0.25000    
 The resulting pinball region                 0.72003E-08
 Initial penetration/gap is excluded.
 Bonded contact (always) is defined.

 *** NOTE ***                            CP =       1.688   TIME= 10:12:44
 Max.  Initial penetration 0 was detected between contact element 8030   
 and target element 8001.                                                
 ****************************************
  

 *** NOTE ***                            CP =       1.688   TIME= 10:12:44
 Symmetric Deformable- deformable contact pair identified by real        
 constant set 13 and contact element type 13 has been set up.  The       
 companion pair has real constant set ID 14.  Both pairs should have     
 the same behavior.                                                      
 ANSYS will deactivate the current pair and keep its companion pair,     
 resulting in asymmetric contact.                                        
 Linear contact is defined
 Contact algorithm: Augmented Lagrange method
 Contact detection at: Gauss integration point
 Contact stiffness factor FKN                  10.000    
 The resulting initial contact stiffness      0.16482E+21
 Default penetration tolerance factor FTOLN   0.10000    
 The resulting penetration tolerance          0.17595E-07
 Default opening contact stiffness OPSF will be used.
 Default tangent stiffness factor FKT          1.0000    
 Use constant contact stiffness
 Default Max. friction stress TAUMAX          0.10000E+21
 Average contact surface length               0.28470E-06
 Average contact pair depth                   0.17595E-06
 Default pinball region factor PINB           0.25000    
 The resulting pinball region                 0.43988E-07
 Initial penetration/gap is excluded.
 Bonded contact (always) is defined.

 *** NOTE ***                            CP =       1.688   TIME= 10:12:44
 Max.  Initial penetration 0 was detected between contact element 8132   
 and target element 8188.                                                
 ****************************************
  

 *** NOTE ***                            CP =       1.688   TIME= 10:12:44
 Symmetric Deformable- deformable contact pair identified by real        
 constant set 14 and contact element type 13 has been set up.  The       
 companion pair has real constant set ID 13.  Both pairs should have     
 the same behavior.                                                      
 ANSYS will keep the current pair and deactivate its companion pair,     
 resulting in asymmetric contact.                                        
 Linear contact is defined
 Contact algorithm: Augmented Lagrange method
 Contact detection at: Gauss integration point
 Contact stiffness factor FKN                  10.000    
 The resulting initial contact stiffness      0.16482E+21
 Default penetration tolerance factor FTOLN   0.10000    
 The resulting penetration tolerance          0.28801E-08
 Default opening contact stiffness OPSF will be used.
 Default tangent stiffness factor FKT          1.0000    
 Use constant contact stiffness
 Default Max. friction stress TAUMAX          0.10000E+21
 Average contact surface length               0.63931E-07
 Average contact pair depth                   0.28801E-07
 Default pinball region factor PINB           0.25000    
 The resulting pinball region                 0.72003E-08
 Initial penetration/gap is excluded.
 Bonded contact (always) is defined.

 *** NOTE ***                            CP =       1.688   TIME= 10:12:44
 Max.  Initial penetration 0 was detected between contact element 8146   
 and target element 8128.                                                
 ****************************************
  

 *** NOTE ***                            CP =       1.688   TIME= 10:12:44
 Symmetric Deformable- deformable contact pair identified by real        
 constant set 15 and contact element type 15 has been set up.  The       
 companion pair has real constant set ID 16.  Both pairs should have     
 the same behavior.                                                      
 ANSYS will deactivate the current pair and keep its companion pair,     
 resulting in asymmetric contact.                                        
 Linear contact is defined
 Contact algorithm: Augmented Lagrange method
 Contact detection at: Gauss integration point
 Contact stiffness factor FKN                  10.000    
 The resulting initial contact stiffness      0.23299E+21
 Default penetration tolerance factor FTOLN   0.10000    
 The resulting penetration tolerance          0.12447E-07
 Default opening contact stiffness OPSF will be used.
 Default tangent stiffness factor FKT          1.0000    
 Use constant contact stiffness
 Default Max. friction stress TAUMAX          0.10000E+21
 Average contact surface length               0.26277E-06
 Average contact pair depth                   0.12447E-06
 Default pinball region factor PINB           0.25000    
 The resulting pinball region                 0.31118E-07
 Initial penetration/gap is excluded.
 Bonded contact (always) is defined.

 *** NOTE ***                            CP =       1.688   TIME= 10:12:44
 Max.  Initial penetration 0 was detected between contact element 8250   
 and target element 8334.                                                
 ****************************************
  

 *** NOTE ***                            CP =       1.688   TIME= 10:12:44
 Symmetric Deformable- deformable contact pair identified by real        
 constant set 16 and contact element type 15 has been set up.  The       
 companion pair has real constant set ID 15.  Both pairs should have     
 the same behavior.                                                      
 ANSYS will keep the current pair and deactivate its companion pair,     
 resulting in asymmetric contact.                                        
 Linear contact is defined
 Contact algorithm: Augmented Lagrange method
 Contact detection at: Gauss integration point
 Contact stiffness factor FKN                  10.000    
 The resulting initial contact stiffness      0.23299E+21
 Default penetration tolerance factor FTOLN   0.10000    
 The resulting penetration tolerance          0.28801E-08
 Default opening contact stiffness OPSF will be used.
 Default tangent stiffness factor FKT          1.0000    
 Use constant contact stiffness
 Default Max. friction stress TAUMAX          0.10000E+21
 Average contact surface length               0.63931E-07
 Average contact pair depth                   0.28801E-07
 Default pinball region factor PINB           0.25000    
 The resulting pinball region                 0.72003E-08
 Initial penetration/gap is excluded.
 Bonded contact (always) is defined.

 *** NOTE ***                            CP =       1.688   TIME= 10:12:44
 Max.  Initial penetration 0 was detected between contact element 8268   
 and target element 8237.                                                
 ****************************************
  

 *** NOTE ***                            CP =       1.688   TIME= 10:12:44
 Symmetric Deformable- deformable contact pair identified by real        
 constant set 17 and contact element type 17 has been set up.  The       
 companion pair has real constant set ID 18.  Both pairs should have     
 the same behavior.                                                      
 ANSYS will deactivate the current pair and keep its companion pair,     
 resulting in asymmetric contact.                                        
 Linear contact is defined
 Contact algorithm: Augmented Lagrange method
 Contact detection at: Gauss integration point
 Contact stiffness factor FKN                  10.000    
 The resulting initial contact stiffness      0.18302E+21
 Default penetration tolerance factor FTOLN   0.10000    
 The resulting penetration tolerance          0.15845E-07
 Default opening contact stiffness OPSF will be used.
 Default tangent stiffness factor FKT          1.0000    
 Use constant contact stiffness
 Default Max. friction stress TAUMAX          0.10000E+21
 Average contact surface length               0.29613E-06
 Average contact pair depth                   0.15845E-06
 Default pinball region factor PINB           0.25000    
 The resulting pinball region                 0.39613E-07
 Initial penetration/gap is excluded.
 Bonded contact (always) is defined.

 *** NOTE ***                            CP =       1.688   TIME= 10:12:44
 Max.  Initial penetration 0 was detected between contact element 8368   
 and target element 8453.                                                
 ****************************************
  

 *** NOTE ***                            CP =       1.688   TIME= 10:12:44
 Symmetric Deformable- deformable contact pair identified by real        
 constant set 18 and contact element type 17 has been set up.  The       
 companion pair has real constant set ID 17.  Both pairs should have     
 the same behavior.                                                      
 ANSYS will keep the current pair and deactivate its companion pair,     
 resulting in asymmetric contact.                                        
 Linear contact is defined
 Contact algorithm: Augmented Lagrange method
 Contact detection at: Gauss integration point
 Contact stiffness factor FKN                  10.000    
 The resulting initial contact stiffness      0.18302E+21
 Default penetration tolerance factor FTOLN   0.10000    
 The resulting penetration tolerance          0.28801E-08
 Default opening contact stiffness OPSF will be used.
 Default tangent stiffness factor FKT          1.0000    
 Use constant contact stiffness
 Default Max. friction stress TAUMAX          0.10000E+21
 Average contact surface length               0.63931E-07
 Average contact pair depth                   0.28801E-07
 Default pinball region factor PINB           0.25000    
 The resulting pinball region                 0.72003E-08
 Initial penetration/gap is excluded.
 Bonded contact (always) is defined.

 *** NOTE ***                            CP =       1.688   TIME= 10:12:44
 Max.  Initial penetration 0 was detected between contact element 8384   
 and target element 8364.                                                
 ****************************************
  

 *** NOTE ***                            CP =       1.688   TIME= 10:12:44
 Symmetric Deformable- deformable contact pair identified by real        
 constant set 19 and contact element type 19 has been set up.  The       
 companion pair has real constant set ID 20.  Both pairs should have     
 the same behavior.                                                      
 ANSYS will deactivate the current pair and keep its companion pair,     
 resulting in asymmetric contact.                                        
 Linear contact is defined
 Contact algorithm: Augmented Lagrange method
 Contact detection at: Gauss integration point
 Contact stiffness factor FKN                  10.000    
 The resulting initial contact stiffness      0.21572E+21
 Default penetration tolerance factor FTOLN   0.10000    
 The resulting penetration tolerance          0.13444E-07
 Default opening contact stiffness OPSF will be used.
 Default tangent stiffness factor FKT          1.0000    
 Use constant contact stiffness
 Default Max. friction stress TAUMAX          0.10000E+21
 Average contact surface length               0.22677E-06
 Average contact pair depth                   0.13444E-06
 Default pinball region factor PINB           0.25000    
 The resulting pinball region                 0.33609E-07
 Initial penetration/gap is excluded.
 Bonded contact (always) is defined.

 *** NOTE ***                            CP =       1.688   TIME= 10:12:44
 Max.  Initial penetration 0 was detected between contact element 8508   
 and target element 8648.                                                
 ****************************************
  

 *** NOTE ***                            CP =       1.688   TIME= 10:12:44
 Symmetric Deformable- deformable contact pair identified by real        
 constant set 20 and contact element type 19 has been set up.  The       
 companion pair has real constant set ID 19.  Both pairs should have     
 the same behavior.                                                      
 ANSYS will keep the current pair and deactivate its companion pair,     
 resulting in asymmetric contact.                                        
 Linear contact is defined
 Contact algorithm: Augmented Lagrange method
 Contact detection at: Gauss integration point
 Contact stiffness factor FKN                  10.000    
 The resulting initial contact stiffness      0.21572E+21
 Default penetration tolerance factor FTOLN   0.10000    
 The resulting penetration tolerance          0.27857E-08
 Default opening contact stiffness OPSF will be used.
 Default tangent stiffness factor FKT          1.0000    
 Use constant contact stiffness
 Default Max. friction stress TAUMAX          0.10000E+21
 Average contact surface length               0.87182E-07
 Average contact pair depth                   0.27857E-07
 Default pinball region factor PINB           0.25000    
 The resulting pinball region                 0.69644E-08
 Initial penetration/gap is excluded.
 Bonded contact (always) is defined.

 *** NOTE ***                            CP =       1.688   TIME= 10:12:44
 Max.  Initial penetration 0 was detected between contact element 8548   
 and target element 8493.                                                
 ****************************************
  

 *** NOTE ***                            CP =       1.688   TIME= 10:12:44
 Symmetric Deformable- deformable contact pair identified by real        
 constant set 21 and contact element type 21 has been set up.  The       
 companion pair has real constant set ID 22.  Both pairs should have     
 the same behavior.                                                      
 ANSYS will deactivate the current pair and keep its companion pair,     
 resulting in asymmetric contact.                                        
 Linear contact is defined
 Contact algorithm: Augmented Lagrange method
 Contact detection at: Gauss integration point
 Contact stiffness factor FKN                  10.000    
 The resulting initial contact stiffness      0.23062E+21
 Default penetration tolerance factor FTOLN   0.10000    
 The resulting penetration tolerance          0.12575E-07
 Default opening contact stiffness OPSF will be used.
 Default tangent stiffness factor FKT          1.0000    
 Use constant contact stiffness
 Default Max. friction stress TAUMAX          0.10000E+21
 Average contact surface length               0.22456E-06
 Average contact pair depth                   0.12575E-06
 Default pinball region factor PINB           0.25000    
 The resulting pinball region                 0.31437E-07
 Initial penetration/gap is excluded.
 Bonded contact (always) is defined.

 *** NOTE ***                            CP =       1.688   TIME= 10:12:44
 Max.  Initial penetration 0 was detected between contact element 8692   
 and target element 8801.                                                
 ****************************************
  

 *** NOTE ***                            CP =       1.688   TIME= 10:12:44
 Symmetric Deformable- deformable contact pair identified by real        
 constant set 22 and contact element type 21 has been set up.  The       
 companion pair has real constant set ID 21.  Both pairs should have     
 the same behavior.                                                      
 ANSYS will keep the current pair and deactivate its companion pair,     
 resulting in asymmetric contact.                                        
 Linear contact is defined
 Contact algorithm: Augmented Lagrange method
 Contact detection at: Gauss integration point
 Contact stiffness factor FKN                  10.000    
 The resulting initial contact stiffness      0.23062E+21
 Default penetration tolerance factor FTOLN   0.10000    
 The resulting penetration tolerance          0.29165E-08
 Default opening contact stiffness OPSF will be used.
 Default tangent stiffness factor FKT          1.0000    
 Use constant contact stiffness
 Default Max. friction stress TAUMAX          0.10000E+21
 Average contact surface length               0.92489E-07
 Average contact pair depth                   0.29165E-07
 Default pinball region factor PINB           0.25000    
 The resulting pinball region                 0.72912E-08
 Initial penetration/gap is excluded.
 Bonded contact (always) is defined.

 *** NOTE ***                            CP =       1.688   TIME= 10:12:44
 Max.  Initial penetration 0 was detected between contact element 8732   
 and target element 8689.                                                
 ****************************************
  

 *** NOTE ***                            CP =       1.688   TIME= 10:12:44
 Symmetric Deformable- deformable contact pair identified by real        
 constant set 23 and contact element type 23 has been set up.  The       
 companion pair has real constant set ID 24.  Both pairs should have     
 the same behavior.                                                      
 ANSYS will deactivate the current pair and keep its companion pair,     
 resulting in asymmetric contact.                                        
 Linear contact is defined
 Contact algorithm: Augmented Lagrange method
 Contact detection at: Gauss integration point
 Contact stiffness factor FKN                  10.000    
 The resulting initial contact stiffness      0.22884E+21
 Default penetration tolerance factor FTOLN   0.10000    
 The resulting penetration tolerance          0.12673E-07
 Default opening contact stiffness OPSF will be used.
 Default tangent stiffness factor FKT          1.0000    
 Use constant contact stiffness
 Default Max. friction stress TAUMAX          0.10000E+21
 Average contact surface length               0.22033E-06
 Average contact pair depth                   0.12673E-06
 Default pinball region factor PINB           0.25000    
 The resulting pinball region                 0.31682E-07
 Initial penetration/gap is excluded.
 Bonded contact (always) is defined.

 *** NOTE ***                            CP =       1.688   TIME= 10:12:44
 Max.  Initial penetration 0 was detected between contact element 8872   
 and target element 8981.                                                
 ****************************************
  

 *** NOTE ***                            CP =       1.688   TIME= 10:12:44
 Symmetric Deformable- deformable contact pair identified by real        
 constant set 24 and contact element type 23 has been set up.  The       
 companion pair has real constant set ID 23.  Both pairs should have     
 the same behavior.                                                      
 ANSYS will keep the current pair and deactivate its companion pair,     
 resulting in asymmetric contact.                                        
 Linear contact is defined
 Contact algorithm: Augmented Lagrange method
 Contact detection at: Gauss integration point
 Contact stiffness factor FKN                  10.000    
 The resulting initial contact stiffness      0.22884E+21
 Default penetration tolerance factor FTOLN   0.10000    
 The resulting penetration tolerance          0.25751E-08
 Default opening contact stiffness OPSF will be used.
 Default tangent stiffness factor FKT          1.0000    
 Use constant contact stiffness
 Default Max. friction stress TAUMAX          0.10000E+21
 Average contact surface length               0.80146E-07
 Average contact pair depth                   0.25751E-07
 Default pinball region factor PINB           0.25000    
 The resulting pinball region                 0.64378E-08
 Initial penetration/gap is excluded.
 Bonded contact (always) is defined.

 *** NOTE ***                            CP =       1.688   TIME= 10:12:44
 Max.  Initial penetration 0 was detected between contact element 8916   
 and target element 8835.                                                
 ****************************************
  

 *** NOTE ***                            CP =       1.688   TIME= 10:12:44
 Symmetric Deformable- deformable contact pair identified by real        
 constant set 25 and contact element type 25 has been set up.  The       
 companion pair has real constant set ID 26.  Both pairs should have     
 the same behavior.                                                      
 ANSYS will deactivate the current pair and keep its companion pair,     
 resulting in asymmetric contact.                                        
 Linear contact is defined
 Contact algorithm: Augmented Lagrange method
 Contact detection at: Gauss integration point
 Contact stiffness factor FKN                  10.000    
 The resulting initial contact stiffness      0.20339E+21
 Default penetration tolerance factor FTOLN   0.10000    
 The resulting penetration tolerance          0.14259E-07
 Default opening contact stiffness OPSF will be used.
 Default tangent stiffness factor FKT          1.0000    
 Use constant contact stiffness
 Default Max. friction stress TAUMAX          0.10000E+21
 Average contact surface length               0.22359E-06
 Average contact pair depth                   0.14259E-06
 Default pinball region factor PINB           0.25000    
 The resulting pinball region                 0.35647E-07
 Initial penetration/gap is excluded.
 Bonded contact (always) is defined.

 *** NOTE ***                            CP =       1.688   TIME= 10:12:44
 Max.  Initial penetration 0 was detected between contact element 9070   
 and target element 9187.                                                
 ****************************************
  

 *** NOTE ***                            CP =       1.688   TIME= 10:12:44
 Symmetric Deformable- deformable contact pair identified by real        
 constant set 26 and contact element type 25 has been set up.  The       
 companion pair has real constant set ID 25.  Both pairs should have     
 the same behavior.                                                      
 ANSYS will keep the current pair and deactivate its companion pair,     
 resulting in asymmetric contact.                                        
 Linear contact is defined
 Contact algorithm: Augmented Lagrange method
 Contact detection at: Gauss integration point
 Contact stiffness factor FKN                  10.000    
 The resulting initial contact stiffness      0.20339E+21
 Default penetration tolerance factor FTOLN   0.10000    
 The resulting penetration tolerance          0.27858E-08
 Default opening contact stiffness OPSF will be used.
 Default tangent stiffness factor FKT          1.0000    
 Use constant contact stiffness
 Default Max. friction stress TAUMAX          0.10000E+21
 Average contact surface length               0.86829E-07
 Average contact pair depth                   0.27858E-07
 Default pinball region factor PINB           0.25000    
 The resulting pinball region                 0.69645E-08
 Initial penetration/gap is excluded.
 Bonded contact (always) is defined.

 *** NOTE ***                            CP =       1.688   TIME= 10:12:44
 Max.  Initial penetration 0 was detected between contact element 9110   
 and target element 9050.                                                
 ****************************************
  

 *** NOTE ***                            CP =       1.688   TIME= 10:12:44
 Symmetric Deformable- deformable contact pair identified by real        
 constant set 27 and contact element type 27 has been set up.  The       
 companion pair has real constant set ID 28.  Both pairs should have     
 the same behavior.                                                      
 ANSYS will keep the current pair and deactivate its companion pair,     
 resulting in asymmetric contact.                                        
 Linear contact is defined
 Contact algorithm: Augmented Lagrange method
 Contact detection at: Gauss integration point
 Contact stiffness factor FKN                  10.000    
 The resulting initial contact stiffness      0.25329E+21
 Default penetration tolerance factor FTOLN   0.10000    
 The resulting penetration tolerance          0.11449E-07
 Default opening contact stiffness OPSF will be used.
 Default tangent stiffness factor FKT          1.0000    
 Use constant contact stiffness
 Default Max. friction stress TAUMAX          0.10000E+21
 Average contact surface length               0.26871E-06
 Average contact pair depth                   0.11449E-06
 Default pinball region factor PINB           0.25000    
 The resulting pinball region                 0.28623E-07
 Initial penetration/gap is excluded.
 Bonded contact (always) is defined.

 *** NOTE ***                            CP =       1.688   TIME= 10:12:44
 Max.  Initial penetration 3.97046694E-23 was detected between contact   
 element 9241 and target element 9293.                                   
 ****************************************
  

 *** NOTE ***                            CP =       1.688   TIME= 10:12:44
 Symmetric Deformable- deformable contact pair identified by real        
 constant set 28 and contact element type 27 has been set up.  The       
 companion pair has real constant set ID 27.  Both pairs should have     
 the same behavior.                                                      
 ANSYS will deactivate the current pair and keep its companion pair,     
 resulting in asymmetric contact.                                        
 Linear contact is defined
 Contact algorithm: Augmented Lagrange method
 Contact detection at: Gauss integration point
 Contact stiffness factor FKN                  10.000    
 The resulting initial contact stiffness      0.25329E+21
 Default penetration tolerance factor FTOLN   0.10000    
 The resulting penetration tolerance          0.18000E-07
 Default opening contact stiffness OPSF will be used.
 Default tangent stiffness factor FKT          1.0000    
 Use constant contact stiffness
 Default Max. friction stress TAUMAX          0.10000E+21
 Average contact surface length               0.60000E-06
 Average contact pair depth                   0.18000E-06
 Default pinball region factor PINB           0.25000    
 The resulting pinball region                 0.45000E-07
 Initial penetration/gap is excluded.
 Bonded contact (always) is defined.

 *** NOTE ***                            CP =       1.703   TIME= 10:12:44
 Max.  Initial penetration 1.32348898E-23 was detected between contact   
 element 9274 and target element 9237.                                   
 ****************************************
  

 *** WARNING ***                         CP =       1.703   TIME= 10:12:44
 Maximum contact stiffness 2.532948841E+20 is too big which can cause an 
 accuracy problem, you may scale the force units in the model.           

 *** WARNING ***                         CP =       1.703   TIME= 10:12:44
 Minimum contact depth 2.575118698E-08 is too small which can cause an   
 accuracy problem, you may scale the length units in the model.          
  
  

  
  
     D I S T R I B U T E D   D O M A I N   D E C O M P O S E R
  
  ...Number of elements: 5733
  ...Number of nodes:    11080
  ...Decompose to 2 CPU domains
  ...Element load balance ratio =     1.012


                      L O A D   S T E P   O P T I O N S

   LOAD STEP NUMBER. . . . . . . . . . . . . . . .     1
   THERMAL STRAINS INCLUDED IN THE LOAD VECTOR . .   YES
   PRINT OUTPUT CONTROLS . . . . . . . . . . . . .NO PRINTOUT
   DATABASE OUTPUT CONTROLS
      ITEM     FREQUENCY   COMPONENT
       ALL       NONE               
      NSOL        ALL               
      ETMP        ALL               


 *** NOTE ***                            CP =       1.891   TIME= 10:12:45
 Symmetric Deformable- deformable contact pair identified by real        
 constant set 13 and contact element type 13 has been set up.  The       
 companion pair has real constant set ID 14.  Both pairs should have     
 the same behavior.                                                      
 ANSYS will deactivate the current pair and keep its companion pair,     
 resulting in asymmetric contact.                                        
 Linear contact is defined
 Contact algorithm: Augmented Lagrange method
 Contact detection at: Gauss integration point
 Contact stiffness factor FKN                  10.000    
 The resulting initial contact stiffness      0.16482E+21
 Default penetration tolerance factor FTOLN   0.10000    
 The resulting penetration tolerance          0.17595E-07
 Default opening contact stiffness OPSF will be used.
 Default tangent stiffness factor FKT          1.0000    
 Use constant contact stiffness
 Default Max. friction stress TAUMAX          0.10000E+21
 Average contact surface length               0.28470E-06
 Average contact pair depth                   0.17595E-06
 Default pinball region factor PINB           0.25000    
 The resulting pinball region                 0.43988E-07
 Initial penetration/gap is excluded.
 Bonded contact (always) is defined.

 *** NOTE ***                            CP =       1.891   TIME= 10:12:45
 Max.  Initial penetration 0 was detected between contact element 8132   
 and target element 8188.                                                
 ****************************************
  

 *** NOTE ***                            CP =       1.891   TIME= 10:12:45
 Symmetric Deformable- deformable contact pair identified by real        
 constant set 14 and contact element type 13 has been set up.  The       
 companion pair has real constant set ID 13.  Both pairs should have     
 the same behavior.                                                      
 ANSYS will keep the current pair and deactivate its companion pair,     
 resulting in asymmetric contact.                                        
 Linear contact is defined
 Contact algorithm: Augmented Lagrange method
 Contact detection at: Gauss integration point
 Contact stiffness factor FKN                  10.000    
 The resulting initial contact stiffness      0.16482E+21
 Default penetration tolerance factor FTOLN   0.10000    
 The resulting penetration tolerance          0.28801E-08
 Default opening contact stiffness OPSF will be used.
 Default tangent stiffness factor FKT          1.0000    
 Use constant contact stiffness
 Default Max. friction stress TAUMAX          0.10000E+21
 Average contact surface length               0.63931E-07
 Average contact pair depth                   0.28801E-07
 Default pinball region factor PINB           0.25000    
 The resulting pinball region                 0.72003E-08
 Initial penetration/gap is excluded.
 Bonded contact (always) is defined.

 *** NOTE ***                            CP =       1.891   TIME= 10:12:45
 Max.  Initial penetration 0 was detected between contact element 8146   
 and target element 8128.                                                
 ****************************************
  

 *** NOTE ***                            CP =       1.891   TIME= 10:12:45
 Symmetric Deformable- deformable contact pair identified by real        
 constant set 17 and contact element type 17 has been set up.  The       
 companion pair has real constant set ID 18.  Both pairs should have     
 the same behavior.                                                      
 ANSYS will deactivate the current pair and keep its companion pair,     
 resulting in asymmetric contact.                                        
 Linear contact is defined
 Contact algorithm: Augmented Lagrange method
 Contact detection at: Gauss integration point
 Contact stiffness factor FKN                  10.000    
 The resulting initial contact stiffness      0.18302E+21
 Default penetration tolerance factor FTOLN   0.10000    
 The resulting penetration tolerance          0.15845E-07
 Default opening contact stiffness OPSF will be used.
 Default tangent stiffness factor FKT          1.0000    
 Use constant contact stiffness
 Default Max. friction stress TAUMAX          0.10000E+21
 Average contact surface length               0.29613E-06
 Average contact pair depth                   0.15845E-06
 Default pinball region factor PINB           0.25000    
 The resulting pinball region                 0.39613E-07
 Initial penetration/gap is excluded.
 Bonded contact (always) is defined.

 *** NOTE ***                            CP =       1.891   TIME= 10:12:45
 Max.  Initial penetration 0 was detected between contact element 8368   
 and target element 8453.                                                
 ****************************************
  

 *** NOTE ***                            CP =       1.891   TIME= 10:12:45
 Symmetric Deformable- deformable contact pair identified by real        
 constant set 18 and contact element type 17 has been set up.  The       
 companion pair has real constant set ID 17.  Both pairs should have     
 the same behavior.                                                      
 ANSYS will keep the current pair and deactivate its companion pair,     
 resulting in asymmetric contact.                                        
 Linear contact is defined
 Contact algorithm: Augmented Lagrange method
 Contact detection at: Gauss integration point
 Contact stiffness factor FKN                  10.000    
 The resulting initial contact stiffness      0.18302E+21
 Default penetration tolerance factor FTOLN   0.10000    
 The resulting penetration tolerance          0.28801E-08
 Default opening contact stiffness OPSF will be used.
 Default tangent stiffness factor FKT          1.0000    
 Use constant contact stiffness
 Default Max. friction stress TAUMAX          0.10000E+21
 Average contact surface length               0.63931E-07
 Average contact pair depth                   0.28801E-07
 Default pinball region factor PINB           0.25000    
 The resulting pinball region                 0.72003E-08
 Initial penetration/gap is excluded.
 Bonded contact (always) is defined.

 *** NOTE ***                            CP =       1.891   TIME= 10:12:45
 Max.  Initial penetration 0 was detected between contact element 8384   
 and target element 8364.                                                
 ****************************************
  

 *** NOTE ***                            CP =       1.891   TIME= 10:12:45
 Symmetric Deformable- deformable contact pair identified by real        
 constant set 21 and contact element type 21 has been set up.  The       
 companion pair has real constant set ID 22.  Both pairs should have     
 the same behavior.                                                      
 ANSYS will deactivate the current pair and keep its companion pair,     
 resulting in asymmetric contact.                                        
 Linear contact is defined
 Contact algorithm: Augmented Lagrange method
 Contact detection at: Gauss integration point
 Contact stiffness factor FKN                  10.000    
 The resulting initial contact stiffness      0.23062E+21
 Default penetration tolerance factor FTOLN   0.10000    
 The resulting penetration tolerance          0.12575E-07
 Default opening contact stiffness OPSF will be used.
 Default tangent stiffness factor FKT          1.0000    
 Use constant contact stiffness
 Default Max. friction stress TAUMAX          0.10000E+21
 Average contact surface length               0.22456E-06
 Average contact pair depth                   0.12575E-06
 Default pinball region factor PINB           0.25000    
 The resulting pinball region                 0.31437E-07
 Initial penetration/gap is excluded.
 Bonded contact (always) is defined.

 *** NOTE ***                            CP =       1.891   TIME= 10:12:45
 Max.  Initial penetration 0 was detected between contact element 8692   
 and target element 8801.                                                
 ****************************************
  

 *** NOTE ***                            CP =       1.891   TIME= 10:12:45
 Symmetric Deformable- deformable contact pair identified by real        
 constant set 22 and contact element type 21 has been set up.  The       
 companion pair has real constant set ID 21.  Both pairs should have     
 the same behavior.                                                      
 ANSYS will keep the current pair and deactivate its companion pair,     
 resulting in asymmetric contact.                                        
 Linear contact is defined
 Contact algorithm: Augmented Lagrange method
 Contact detection at: Gauss integration point
 Contact stiffness factor FKN                  10.000    
 The resulting initial contact stiffness      0.23062E+21
 Default penetration tolerance factor FTOLN   0.10000    
 The resulting penetration tolerance          0.29165E-08
 Default opening contact stiffness OPSF will be used.
 Default tangent stiffness factor FKT          1.0000    
 Use constant contact stiffness
 Default Max. friction stress TAUMAX          0.10000E+21
 Average contact surface length               0.92489E-07
 Average contact pair depth                   0.29165E-07
 Default pinball region factor PINB           0.25000    
 The resulting pinball region                 0.72912E-08
 Initial penetration/gap is excluded.
 Bonded contact (always) is defined.

 *** NOTE ***                            CP =       1.891   TIME= 10:12:45
 Max.  Initial penetration 0 was detected between contact element 8732   
 and target element 8689.                                                
 ****************************************
  

 *** NOTE ***                            CP =       1.891   TIME= 10:12:45
 Symmetric Deformable- deformable contact pair identified by real        
 constant set 25 and contact element type 25 has been set up.  The       
 companion pair has real constant set ID 26.  Both pairs should have     
 the same behavior.                                                      
 ANSYS will deactivate the current pair and keep its companion pair,     
 resulting in asymmetric contact.                                        
 Linear contact is defined
 Contact algorithm: Augmented Lagrange method
 Contact detection at: Gauss integration point
 Contact stiffness factor FKN                  10.000    
 The resulting initial contact stiffness      0.20339E+21
 Default penetration tolerance factor FTOLN   0.10000    
 The resulting penetration tolerance          0.14259E-07
 Default opening contact stiffness OPSF will be used.
 Default tangent stiffness factor FKT          1.0000    
 Use constant contact stiffness
 Default Max. friction stress TAUMAX          0.10000E+21
 Average contact surface length               0.22359E-06
 Average contact pair depth                   0.14259E-06
 Default pinball region factor PINB           0.25000    
 The resulting pinball region                 0.35647E-07
 Initial penetration/gap is excluded.
 Bonded contact (always) is defined.

 *** NOTE ***                            CP =       1.891   TIME= 10:12:45
 Max.  Initial penetration 0 was detected between contact element 9070   
 and target element 9187.                                                
 ****************************************
  

 *** NOTE ***                            CP =       1.891   TIME= 10:12:45
 Symmetric Deformable- deformable contact pair identified by real        
 constant set 26 and contact element type 25 has been set up.  The       
 companion pair has real constant set ID 25.  Both pairs should have     
 the same behavior.                                                      
 ANSYS will keep the current pair and deactivate its companion pair,     
 resulting in asymmetric contact.                                        
 Linear contact is defined
 Contact algorithm: Augmented Lagrange method
 Contact detection at: Gauss integration point
 Contact stiffness factor FKN                  10.000    
 The resulting initial contact stiffness      0.20339E+21
 Default penetration tolerance factor FTOLN   0.10000    
 The resulting penetration tolerance          0.27858E-08
 Default opening contact stiffness OPSF will be used.
 Default tangent stiffness factor FKT          1.0000    
 Use constant contact stiffness
 Default Max. friction stress TAUMAX          0.10000E+21
 Average contact surface length               0.86829E-07
 Average contact pair depth                   0.27858E-07
 Default pinball region factor PINB           0.25000    
 The resulting pinball region                 0.69645E-08
 Initial penetration/gap is excluded.
 Bonded contact (always) is defined.

 *** NOTE ***                            CP =       1.891   TIME= 10:12:45
 Max.  Initial penetration 0 was detected between contact element 9110   
 and target element 9050.                                                
 ****************************************
  


                         ***********  PRECISE MASS SUMMARY  ***********

   TOTAL RIGID BODY MASS MATRIX ABOUT ORIGIN
               Translational mass               |   Coupled translational/rotational mass
        0.81220E-13    0.0000        0.0000     |     0.0000      -0.93885E-20  -0.67708E-35
         0.0000       0.81220E-13    0.0000     |    0.93885E-20    0.0000      -0.52813E-26
         0.0000        0.0000       0.81220E-13 |    0.11661E-34   0.52813E-26    0.0000    
     ------------------------------------------ | ------------------------------------------
                                                |         Rotational mass (inertia)
                                                |    0.22693E-24   0.89571E-32   0.52813E-33
                                                |    0.89571E-32   0.22693E-24   0.18654E-39
                                                |    0.52813E-33   0.18654E-39   0.45034E-24

   TOTAL MASS = 0.81220E-13
     The mass principal axes coincide with the global Cartesian axes

   CENTER OF MASS (X,Y,Z)=  -0.65025E-13   0.83365E-22  -0.11559E-06

   TOTAL INERTIA ABOUT CENTER OF MASS
        0.22585E-24   0.89571E-32   0.11386E-32
        0.89571E-32   0.22585E-24   0.18576E-39
        0.11386E-32   0.18576E-39   0.45034E-24
     The inertia principal axes coincide with the global Cartesian axes


  *** MASS SUMMARY BY ELEMENT TYPE ***

  TYPE      MASS
     1  0.109072E-13
     2  0.103294E-15
     3  0.103294E-15
     4  0.103294E-15
     5  0.103294E-15
     6  0.104825E-15
     7  0.104825E-15
     8  0.104825E-15
     9  0.104825E-15
    10  0.694800E-13

 Range of element maximum matrix coefficients in global coordinates
 Maximum = 4413711.29 at element 9249.                                   
 Minimum = 7930.73514 at element 227.                                    

   *** ELEMENT MATRIX FORMULATION TIMES
     TYPE    NUMBER   ENAME      TOTAL CP  AVE CP

        1      3362  SOLID187      0.469   0.000139
        2        51  SOLID186      0.016   0.000306
        3        51  SOLID186      0.016   0.000306
        4        51  SOLID186      0.016   0.000306
        5        51  SOLID186      0.016   0.000306
        6       185  SOLID187      0.016   0.000084
        7       188  SOLID187      0.016   0.000083
        8       209  SOLID187      0.031   0.000150
        9       183  SOLID187      0.016   0.000085
       10       100  SOLID186      0.016   0.000156
       11        61  CONTA174      0.000   0.000000
       12        61  TARGE170      0.000   0.000000
       13        58  CONTA174      0.016   0.000269
       14        58  TARGE170      0.000   0.000000
       15        61  CONTA174      0.016   0.000256
       16        61  TARGE170      0.000   0.000000
       17        58  CONTA174      0.000   0.000000
       18        58  TARGE170      0.000   0.000000
       19        92  CONTA174      0.016   0.000170
       20        92  TARGE170      0.000   0.000000
       21        88  CONTA174      0.016   0.000178
       22        88  TARGE170      0.000   0.000000
       23       100  CONTA174      0.000   0.000000
       24       100  TARGE170      0.016   0.000156
       25        93  CONTA174      0.000   0.000000
       26        93  TARGE170      0.000   0.000000
       27        40  CONTA174      0.000   0.000000
       28        40  TARGE170      0.000   0.000000
 Time at end of element matrix formulation CP = 2.421875.                

  BLOCK LANCZOS CALCULATION OF UP TO     6 EIGENVECTORS.
  NUMBER OF EQUATIONS              =        32217
  MAXIMUM WAVEFRONT                =          606
  MAXIMUM MODES STORED             =            6
  MINIMUM EIGENVALUE               =  0.00000E+00
  MAXIMUM EIGENVALUE               =  0.10000E+31


  Local memory allocated for solver              =     52.602 MB
  Local memory required for in-core solution     =     50.164 MB
  Local memory required for out-of-core solution =     21.367 MB

  Total memory allocated for solver              =    105.843 MB
  Total memory required for in-core solution     =    100.938 MB
  Total memory required for out-of-core solution =     43.398 MB

 *** NOTE ***                            CP =       4.000   TIME= 10:12:53
 The Distributed Sparse Matrix Solver used by the Block Lanczos          
 eigensolver is currently running in the in-core memory mode.  This      
 memory mode uses the most amount of memory in order to avoid using the  
 hard drive as much as possible, which most often results in the         
 fastest solution time.  This mode is recommended if enough physical     
 memory is present to accommodate all of the solver data.                

 *** ANSYS - ENGINEERING ANALYSIS SYSTEM  RELEASE 2020 R1          20.1     ***
 DISTRIBUTED ANSYS Mechanical Enterprise                       

 20120530  VERSION=WINDOWS x64   10:13:02  APR 07, 2020 CP=      4.875

 relay--Modal (C5)                                                             



 *** FREQUENCIES FROM BLOCK LANCZOS ITERATION ***

  MODE    FREQUENCY (HERTZ)      


    1     7741221.818648    
    2     12662959.46897    
    3     12676497.76716    
    4     59660436.43384    
    5     59831112.48370    
    6     60539497.04871    

 *** ANSYS - ENGINEERING ANALYSIS SYSTEM  RELEASE 2020 R1          20.1     ***
 DISTRIBUTED ANSYS Mechanical Enterprise                       

 20120530  VERSION=WINDOWS x64   10:13:02  APR 07, 2020 CP=      4.906

 relay--Modal (C5)                                                             





          ***** PARTICIPATION FACTOR CALCULATION *****  X  DIRECTION
                                                                                  CUMULATIVE     RATIO EFF.MASS
  MODE   FREQUENCY       PERIOD      PARTIC.FACTOR     RATIO    EFFECTIVE MASS   MASS FRACTION   TO TOTAL MASS
     1    0.774122E+07   0.12918E-06   0.41357E-10    0.000437    0.171040E-20    0.190313E-06    0.210590E-07
     2    0.126630E+08   0.78970E-07  -0.71002E-09    0.007507    0.504131E-18    0.562839E-04    0.620701E-05
     3    0.126765E+08   0.78886E-07   0.84421E-09    0.008926    0.712693E-18    0.135584E-03    0.877489E-05
     4    0.596604E+08   0.16762E-07   0.94576E-07    1.000000    0.894456E-14    0.995377        0.110128    
     5    0.598311E+08   0.16714E-07  -0.56068E-08    0.059283    0.314357E-16    0.998875        0.387045E-03
     6    0.605395E+08   0.16518E-07   0.31802E-08    0.033626    0.101139E-16     1.00000        0.124526E-03
 -----------------------------------------------------------------------------------------------------------------
   sum                                                            0.898732E-14                    0.110655    
 -----------------------------------------------------------------------------------------------------------------



          ***** PARTICIPATION FACTOR CALCULATION *****  Y  DIRECTION
                                                                                  CUMULATIVE     RATIO EFF.MASS
  MODE   FREQUENCY       PERIOD      PARTIC.FACTOR     RATIO    EFFECTIVE MASS   MASS FRACTION   TO TOTAL MASS
     1    0.774122E+07   0.12918E-06  -0.12339E-11    0.000013    0.152248E-23    0.169306E-09    0.187453E-10
     2    0.126630E+08   0.78970E-07  -0.85894E-09    0.009074    0.737775E-18    0.820436E-04    0.908370E-05
     3    0.126765E+08   0.78886E-07  -0.68976E-09    0.007287    0.475773E-18    0.134951E-03    0.585786E-05
     4    0.596604E+08   0.16762E-07   0.55959E-08    0.059118    0.313139E-16    0.361717E-02    0.385546E-03
     5    0.598311E+08   0.16714E-07   0.94657E-07    1.000000    0.895992E-14    0.999995        0.110317    
     6    0.605395E+08   0.16518E-07   0.22085E-09    0.002333    0.487730E-19     1.00000        0.600508E-06
 -----------------------------------------------------------------------------------------------------------------
   sum                                                            0.899249E-14                    0.110718    
 -----------------------------------------------------------------------------------------------------------------



          ***** PARTICIPATION FACTOR CALCULATION *****  Z  DIRECTION
                                                                                  CUMULATIVE     RATIO EFF.MASS
  MODE   FREQUENCY       PERIOD      PARTIC.FACTOR     RATIO    EFFECTIVE MASS   MASS FRACTION   TO TOTAL MASS
     1    0.774122E+07   0.12918E-06   0.97597E-07    1.000000    0.952526E-14    0.999998        0.117278    
     2    0.126630E+08   0.78970E-07  -0.10423E-10    0.000107    0.108643E-21    0.999998        0.133765E-08
     3    0.126765E+08   0.78886E-07   0.89503E-10    0.000917    0.801076E-20    0.999999        0.986308E-07
     4    0.596604E+08   0.16762E-07  -0.91497E-10    0.000937    0.837162E-20     1.00000        0.103074E-06
     5    0.598311E+08   0.16714E-07   0.12882E-11    0.000013    0.165937E-23     1.00000        0.204306E-10
     6    0.605395E+08   0.16518E-07   0.19999E-10    0.000205    0.399946E-21     1.00000        0.492426E-08
 -----------------------------------------------------------------------------------------------------------------
   sum                                                            0.952528E-14                    0.117278    
 -----------------------------------------------------------------------------------------------------------------



          ***** PARTICIPATION FACTOR CALCULATION *****ROTX DIRECTION
                                                                                  CUMULATIVE     RATIO EFF.MASS
  MODE   FREQUENCY       PERIOD      PARTIC.FACTOR     RATIO    EFFECTIVE MASS   MASS FRACTION   TO TOTAL MASS
     1    0.774122E+07   0.12918E-06    0.0000        0.000000     0.00000         0.00000         0.00000    
     2    0.126630E+08   0.78970E-07  -0.81298E-13    1.000000    0.660933E-26    0.726546        0.291245E-01
     3    0.126765E+08   0.78886E-07  -0.49016E-13    0.602924    0.240260E-26    0.990658        0.105872E-01
     4    0.596604E+08   0.16762E-07    0.0000        0.000000     0.00000        0.990658         0.00000    
     5    0.598311E+08   0.16714E-07  -0.92172E-14    0.113376    0.849571E-28    0.999998        0.374369E-03
     6    0.605395E+08   0.16518E-07    0.0000        0.000000     0.00000        0.999998         0.00000    
 -----------------------------------------------------------------------------------------------------------------
   sum                                                            0.909691E-26                    0.400862E-01
 -----------------------------------------------------------------------------------------------------------------



          ***** PARTICIPATION FACTOR CALCULATION *****ROTY DIRECTION
                                                                                  CUMULATIVE     RATIO EFF.MASS
  MODE   FREQUENCY       PERIOD      PARTIC.FACTOR     RATIO    EFFECTIVE MASS   MASS FRACTION   TO TOTAL MASS
     1    0.774122E+07   0.12918E-06    0.0000        0.000000     0.00000         0.00000         0.00000    
     2    0.126630E+08   0.78970E-07   0.49011E-13    0.602768    0.240210E-26    0.264010        0.105850E-01
     3    0.126765E+08   0.78886E-07  -0.81310E-13    1.000000    0.661136E-26    0.990652        0.291334E-01
     4    0.596604E+08   0.16762E-07   0.92160E-14    0.113344    0.849354E-28    0.999987        0.374274E-03
     5    0.598311E+08   0.16714E-07    0.0000        0.000000     0.00000        0.999987         0.00000    
     6    0.605395E+08   0.16518E-07    0.0000        0.000000     0.00000        0.999987         0.00000    
 -----------------------------------------------------------------------------------------------------------------
   sum                                                            0.909851E-26                    0.400932E-01
 -----------------------------------------------------------------------------------------------------------------



          ***** PARTICIPATION FACTOR CALCULATION *****ROTZ DIRECTION
                                                                                  CUMULATIVE     RATIO EFF.MASS
  MODE   FREQUENCY       PERIOD      PARTIC.FACTOR     RATIO    EFFECTIVE MASS   MASS FRACTION   TO TOTAL MASS
     1    0.774122E+07   0.12918E-06    0.0000        0.000000     0.00000         0.00000         0.00000    
     2    0.126630E+08   0.78970E-07    0.0000        0.000000     0.00000         0.00000         0.00000    
     3    0.126765E+08   0.78886E-07    0.0000        0.000000     0.00000         0.00000         0.00000    
     4    0.596604E+08   0.16762E-07    0.0000        0.000000     0.00000         0.00000         0.00000    
     5    0.598311E+08   0.16714E-07    0.0000        0.000000     0.00000         0.00000         0.00000    
     6    0.605395E+08   0.16518E-07    0.0000        0.000000     0.00000         0.00000         0.00000    





 *** NOTE ***                            CP =       4.906   TIME= 10:13:02
 The modes requested are mass normalized (Nrmkey on MODOPT).  However,   
 the modal masses and kinetic energies below are calculated with unit    
 normalized modes.                                                       

        ***** MODAL MASSES, KINETIC ENERGIES, AND TRANSLATIONAL EFFECTIVE MASSES SUMMARY *****

                                                                         EFFECTIVE MASS
  MODE  FREQUENCY   MODAL MASS     KENE      |      X-DIR      RATIO%   Y-DIR      RATIO%   Z-DIR      RATIO% 
     1  0.7741E+07  0.8618E-14   10.19       |    0.1710E-20    0.00  0.1522E-23    0.00  0.9525E-14   11.73
     2  0.1266E+08  0.1708E-14   5.407       |    0.5041E-18    0.00  0.7378E-18    0.00  0.1086E-21    0.00
     3  0.1268E+08  0.1707E-14   5.416       |    0.7127E-18    0.00  0.4758E-18    0.00  0.8011E-20    0.00
     4  0.5966E+08  0.8564E-14   601.7       |    0.8945E-14   11.01  0.3131E-16    0.04  0.8372E-20    0.00
     5  0.5983E+08  0.8679E-14   613.3       |    0.3144E-16    0.04  0.8960E-14   11.03  0.1659E-23    0.00
     6  0.6054E+08  0.1506E-14   108.9       |    0.1011E-16    0.01  0.4877E-19    0.00  0.3999E-21    0.00
 --------------------------------------------------------------------------------------------------------------
   sum                                       |    0.8987E-14   11.07  0.8992E-14   11.07  0.9525E-14   11.73
 --------------------------------------------------------------------------------------------------------------


 *** ANSYS BINARY FILE STATISTICS
  BUFFER SIZE USED= 16384
        3.125 MB WRITTEN ON ELEMENT SAVED DATA FILE: file0.esav
       10.562 MB WRITTEN ON ASSEMBLED MATRIX FILE: file0.full
        1.125 MB WRITTEN ON MODAL MATRIX FILE: file0.mode
        2.000 MB WRITTEN ON RESULTS FILE: file0.rst
 *************** Write FE CONNECTORS *********

 WRITE OUT CONSTRAINT EQUATIONS TO FILE= file.ce                                                                                                                                                                                                                                                             

 *GET  _NMODALSOLPROC  FROM  ACTI  ITEM=NUMC       VALUE=  2.00000000    

 FINISH SOLUTION PROCESSING


 ***** ROUTINE COMPLETED *****  CP =         5.016



 PRINTOUT RESUMED BY /GOP

 *GET  _WALLASOL  FROM  ACTI  ITEM=TIME WALL  VALUE=  10.2175000    

 *** ANSYS - ENGINEERING ANALYSIS SYSTEM  RELEASE 2020 R1          20.1     ***
 DISTRIBUTED ANSYS Mechanical Enterprise                       

 20120530  VERSION=WINDOWS x64   10:13:03  APR 07, 2020 CP=      5.031

 relay--Modal (C5)                                                             



          ***** ANSYS RESULTS INTERPRETATION (POST1) *****

 *** NOTE ***                            CP =       5.031   TIME= 10:13:03
 Reading results into the database (SET command) will update the current 
 displacement and force boundary conditions in the database with the     
 values from the results file for that load set.  Note that any          
 subsequent solutions will use these values unless action is taken to    
 either SAVE the current values or not overwrite them (/EXIT,NOSAVE).    

 PRINTOUT RESUMED BY /GOP

 Set Encoding of XML File to:ISO-8859-1

 Set Output of XML File to:
     PARM,     ,     ,     ,     ,     ,     ,     ,     ,     ,     ,     ,
         ,     ,     ,     ,     ,     ,     ,

 DATABASE WRITTEN ON FILE  parm.xml                                                                                                                                                                                                                                                            

 EXIT THE ANSYS POST1 DATABASE PROCESSOR


 ***** ROUTINE COMPLETED *****  CP =         5.062



 PRINTOUT RESUMED BY /GOP

 *GET  _WALLDONE  FROM  ACTI  ITEM=TIME WALL  VALUE=  10.2175000    

 PARAMETER _PREPTIME =     0.000000000    

 PARAMETER _SOLVTIME =     20.00000000    

 PARAMETER _POSTTIME =     0.000000000    

 PARAMETER _TOTALTIM =     20.00000000    

 *GET  _DLBRATIO  FROM  ACTI  ITEM=SOLU DLBR  VALUE=  1.01243684    

 *GET  _COMBTIME  FROM  ACTI  ITEM=SOLU COMB  VALUE= 0.271115200    
 --- Number of total nodes = 11080
 --- Number of total elements = 5733
 --- Element load balance ratio = 1.01243684
 --- Time to combine distributed files = 0.2711152

 EXIT ANSYS WITHOUT SAVING DATABASE


 NUMBER OF WARNING MESSAGES ENCOUNTERED=          3
 NUMBER OF ERROR   MESSAGES ENCOUNTERED=          0

+--------- D I S T R I B U T E D   A N S Y S   S T A T I S T I C S ------------+

Release: 2020 R1            Build: 20.1       Update: UP20191203   Platform: WINDOWS x64 
Date Run: 04/07/2020   Time: 10:13     Process ID: 8988
Operating System: Windows 10  (Build: 18363)

Processor Model: Intel(R) Core(TM) i5-6360U CPU @ 2.00GHz

Compiler: Intel(R) FORTRAN Compiler Version 19.0.0  (Build: 20190206)
          Intel(R) C/C++ Compiler Version 19.0.0  (Build: 20190206)
          Intel(R) Math Kernel Library Version 2019.0.3 Product Build 20190125

Number of machines requested            :    1
Total number of cores available         :    2
Number of physical cores available      :    2
Number of processes requested           :    2
Number of threads per process requested :    1
Total number of cores requested         :    2 (Distributed Memory Parallel)               
MPI Type: INTELMPI
MPI Version: Intel(R) MPI Library 2018 Update 3 for Windows* OS


GPU Acceleration: Not Requested

Job Name: file0
Input File: dummy.dat

  Core                Machine Name   Working Directory
 -----------------------------------------------------
     0             DESKTOP-H2RNGL6   C:\Users\Akash Levy\Documents\NEM-Relay-CAD\ansys\_ProjectScratch\Scr487B
     1             DESKTOP-H2RNGL6   C:\Users\Akash Levy\Documents\NEM-Relay-CAD\ansys\_ProjectScratch\Scr487B
 
Latency time from master to core     1 =    3.911 microseconds
 
Communication speed from master to core     1 =  1520.88 MB/sec

Total CPU time for main thread                    :        4.8 seconds
Total CPU time summed for all threads             :        5.1 seconds

Elapsed time spent obtaining a license            :        1.4 seconds
Elapsed time spent pre-processing model (/PREP7)  :        0.5 seconds
Elapsed time spent solution - preprocessing       :        1.0 seconds
Elapsed time spent computing solution             :       17.5 seconds
Elapsed time spent solution - postprocessing      :        0.3 seconds
Elapsed time spent post-processing model (/POST1) :        0.1 seconds
 
Eigensolver used                                  :            Block Lanczos
Equation solver computational rate                :        0.4 Gflops
Equation solver effective I/O rate                :        0.2 GB/sec

Maximum total memory used                         :      368.0 MB
Maximum total memory allocated                    :     3136.0 MB
Total physical memory available                   :          4 GB

Total amount of I/O written to disk               :        0.1 GB
Total amount of I/O read from disk                :        0.0 GB

+------ E N D   D I S T R I B U T E D   A N S Y S   S T A T I S T I C S -------+


 *---------------------------------------------------------------------------*
 |                                                                           |
 |                       DISTRIBUTED ANSYS RUN COMPLETED                     |
 |                                                                           |
 |---------------------------------------------------------------------------|
 |                                                                           |
 | Ansys 2020 R1               Build 20.1         UP20191203     WINDOWS x64 |
 |                                                                           |
 |---------------------------------------------------------------------------|
 |                                                                           |
 | Database Requested(-db)  1024 MB    Scratch Memory Requested      1024 MB |
 | Maximum Database Used       8 MB    Maximum Scratch Memory Used    182 MB |
 |                                                                           |
 |---------------------------------------------------------------------------|
 |                                                                           |
 |        CP Time      (sec) =          5.125       Time  =  10:13:03        |
 |        Elapsed Time (sec) =         24.000       Date  =  04/07/2020      |
 |                                                                           |
 *---------------------------------------------------------------------------*
