
 ANSYS Mechanical Enterprise                       


 *------------------------------------------------------------------*
 |                                                                  |
 |   W E L C O M E   T O   T H E   A N S Y S (R)  P R O G R A M     |
 |                                                                  |
 *------------------------------------------------------------------*




 ***************************************************************
 *            ANSYS 2020 R1          LEGAL NOTICES             *
 ***************************************************************
 *                                                             *
 * Copyright 1971-2020 ANSYS, Inc.  All rights reserved.       *
 * Unauthorized use, distribution or duplication is            *
 * prohibited.                                                 *
 *                                                             *
 * Ansys is a registered trademark of ANSYS, Inc. or its       *
 * subsidiaries in the United States or other countries.       *
 * See the ANSYS, Inc. online documentation or the ANSYS, Inc. *
 * documentation CD or online help for the complete Legal      *
 * Notice.                                                     *
 *                                                             *
 ***************************************************************
 *                                                             *
 * THIS ANSYS SOFTWARE PRODUCT AND PROGRAM DOCUMENTATION       *
 * INCLUDE TRADE SECRETS AND CONFIDENTIAL AND PROPRIETARY      *
 * PRODUCTS OF ANSYS, INC., ITS SUBSIDIARIES, OR LICENSORS.    *
 * The software products and documentation are furnished by    *
 * ANSYS, Inc. or its subsidiaries under a software license    *
 * agreement that contains provisions concerning               *
 * non-disclosure, copying, length and nature of use,          *
 * compliance with exporting laws, warranties, disclaimers,    *
 * limitations of liability, and remedies, and other           *
 * provisions.  The software products and documentation may be *
 * used, disclosed, transferred, or copied only in accordance  *
 * with the terms and conditions of that software license      *
 * agreement.                                                  *
 *                                                             *
 * ANSYS, Inc. is a UL registered                              *
 * ISO 9001:2015 company.                                      *
 *                                                             *
 ***************************************************************
 *                                                             *
 * This product is subject to U.S. laws governing export and   *
 * re-export.                                                  *
 *                                                             *
 * For U.S. Government users, except as specifically granted   *
 * by the ANSYS, Inc. software license agreement, the use,     *
 * duplication, or disclosure by the United States Government  *
 * is subject to restrictions stated in the ANSYS, Inc.        *
 * software license agreement and FAR 12.212 (for non-DOD      *
 * licenses).                                                  *
 *                                                             *
 ***************************************************************

 2020 R1 
     
 Point Releases and Patches installed:   
     
 ANSYS, Inc. Products 2020 R1
 SpaceClaim 2020 R1  
 AIM 2020 R1 
 Live (includes SpaceClaim) 2020 R1  
 Autodyn 2020 R1 
 LS-DYNA 2020 R1 
 CFX (includes CFD-Post) 2020 R1 
 Chemkin 2020 R1 
 EnSight 2020 R1 
 FENSAP-ICE 2020 R1  
 Fluent (includes CFD-Post) 2020 R1  
 Forte 2020 R1   
 Polyflow (includes CFD-Post) 2020 R1
 TurboGrid 2020 R1   
 ICEM CFD 2020 R1
 Aqwa 2020 R1
 Customization Files for User Programmable Features 2020 R1  
 Mechanical Products 2020 R1 
 Additive 2020 R1
 ANSYS Sherlock 2020 R1  
 Icepak (includes CFD-Post) 2020 R1  
 ACIS Geometry Interface 2020 R1 
 AutoCAD Geometry Interface 2020 R1  
 Catia, Version 4 Geometry Interface 2020 R1 
 Catia, Version 5 Geometry Interface 2020 R1 
 Catia, Version 6 Geometry Interface 2020 R1 
 Creo Elements/Direct Modeling Geometry Interface 2020 R1
 Creo Parametric Geometry Interface 2020 R1  
 Inventor Geometry Interface 2020 R1 
 JTOpen Geometry Interface 2020 R1   
 NX Geometry Interface 2020 R1   
 Parasolid Geometry Interface  2020 R1   
 Solid Edge Geometry Interface 2020 R1   
 SOLIDWORKS Geometry Interface 2020 R1   
 ANSYS, Inc. License Manager 2020 R1 


          *****  ANSYS COMMAND LINE ARGUMENTS  *****
  BATCH MODE REQUESTED (-b)    = NOLIST
  INPUT FILE COPY MODE (-c)    = COPY
  DISTRIBUTED MEMORY PARALLEL REQUESTED
       2 PARALLEL PROCESSES REQUESTED WITH SINGLE THREAD PER PROCESS
    TOTAL OF     2 CORES REQUESTED
  INPUT FILE NAME              = C:\Users\Akash Levy\Documents\NEM-Relay-CAD\ansys\_ProjectScratch\Scr7EDF\dummy.dat
  OUTPUT FILE NAME             = C:\Users\Akash Levy\Documents\NEM-Relay-CAD\ansys\_ProjectScratch\Scr7EDF\solve.out
  START-UP FILE MODE           = NOREAD
  STOP FILE MODE               = NOREAD

 RELEASE= 2020 R1              BUILD= 20.1      UP20191203   VERSION=WINDOWS x64 
 CURRENT JOBNAME=file0  07:23:37  APR 08, 2020 CP=      0.406


 PARAMETER _DS_PROGRESS =     999.0000000    

 /INPUT FILE= ds.dat  LINE=       0



 *** NOTE ***                            CP =       0.531   TIME= 07:23:37
 The /CONFIG,NOELDB command is not valid in a Distributed ANSYS          
 solution.  Command is ignored.                                          

 *GET  _WALLSTRT  FROM  ACTI  ITEM=TIME WALL  VALUE=  7.39361111    

 TITLE= 
 relay--Modal (C5)                                                             


 SET PARAMETER DIMENSIONS ON  _WB_PROJECTSCRATCH_DIR
  TYPE=STRI  DIMENSIONS=      248        1        1

 PARAMETER _WB_PROJECTSCRATCH_DIR(1) = C:\Users\Akash Levy\Documents\NEM-Relay-CAD\ansys\_ProjectScratch\Scr7EDF\

 SET PARAMETER DIMENSIONS ON  _WB_SOLVERFILES_DIR
  TYPE=STRI  DIMENSIONS=      248        1        1

 PARAMETER _WB_SOLVERFILES_DIR(1) = C:\Users\Akash Levy\Documents\NEM-Relay-CAD\ansys\relay_files\dp0\SYS-12\MECH\

 SET PARAMETER DIMENSIONS ON  _WB_USERFILES_DIR
  TYPE=STRI  DIMENSIONS=      248        1        1

 PARAMETER _WB_USERFILES_DIR(1) = C:\Users\Akash Levy\Documents\NEM-Relay-CAD\ansys\relay_files\user_files\
 --- Data in consistent MKS units. See Solving Units in the help system for more

 MKS UNITS SPECIFIED FOR INTERNAL    
  LENGTH        (l)  = METER (M)
  MASS          (M)  = KILOGRAM (KG)
  TIME          (t)  = SECOND (SEC)
  TEMPERATURE   (T)  = CELSIUS (C)
  TOFFSET            = 273.0
  CHARGE        (Q)  = COULOMB
  FORCE         (f)  = NEWTON (N) (KG-M/SEC2)
  HEAT               = JOULE (N-M)

  PRESSURE           = PASCAL (NEWTON/M**2)
  ENERGY        (W)  = JOULE (N-M)
  POWER         (P)  = WATT (N-M/SEC)
  CURRENT       (i)  = AMPERE (COULOMBS/SEC)
  CAPACITANCE   (C)  = FARAD
  INDUCTANCE    (L)  = HENRY
  MAGNETIC FLUX      = WEBER
  RESISTANCE    (R)  = OHM
  ELECTRIC POTENTIAL = VOLT

 INPUT  UNITS ARE ALSO SET TO MKS 

 *** ANSYS - ENGINEERING ANALYSIS SYSTEM  RELEASE 2020 R1          20.1     ***
 DISTRIBUTED ANSYS Mechanical Enterprise                       

 20120530  VERSION=WINDOWS x64   07:23:37  APR 08, 2020 CP=      0.531

 relay--Modal (C5)                                                             



          ***** ANSYS ANALYSIS DEFINITION (PREP7) *****
 *********** Nodes for the whole assembly ***********
 *********** Elements for Body 1 "Relay" ***********
 *********** Elements for Body 2 "Contact 1" ***********
 *********** Elements for Body 3 "Contact 2" ***********
 *********** Elements for Body 4 "Contact 3" ***********
 *********** Elements for Body 5 "Contact 4" ***********
 *********** Elements for Body 6 "Contact 5" ***********
 *********** Elements for Body 7 "Contact 6" ***********
 *********** Elements for Body 8 "Contact 7" ***********
 *********** Elements for Body 9 "Contact 8" ***********
 *********** Elements for Body 10 "Substrate" ***********
 *********** Send User Defined Coordinate System(s) ***********
 *********** Set Reference Temperature ***********
 *********** Send Materials ***********
 *********** Create Contact "Contact Region 11" ***********
             Real Constant Set For Above Contact Is 12 & 11
 *********** Create Contact "Contact Region 12" ***********
             Real Constant Set For Above Contact Is 14 & 13
 *********** Create Contact "Contact Region 13" ***********
             Real Constant Set For Above Contact Is 16 & 15
 *********** Create Contact "Contact Region 14" ***********
             Real Constant Set For Above Contact Is 18 & 17
 *********** Create Contact "Contact Region 15" ***********
             Real Constant Set For Above Contact Is 20 & 19
 *********** Create Contact "Contact Region 16" ***********
             Real Constant Set For Above Contact Is 22 & 21
 *********** Create Contact "Contact Region 17" ***********
             Real Constant Set For Above Contact Is 24 & 23
 *********** Create Contact "Contact Region 18" ***********
             Real Constant Set For Above Contact Is 26 & 25
 *********** Create Contact "Contact Region 19" ***********
             Real Constant Set For Above Contact Is 28 & 27
 *********** Create Contact "Rough - Multiple To Substrate" ***********
             Real Constant Set For Above Contact Is 30 & 29
 *********** Send Named Selection as Node Component ***********
 *********** Fixed Supports ***********


 ***** ROUTINE COMPLETED *****  CP =         0.688


 --- Number of total nodes = 11080
 --- Number of contact elements = 3686
 --- Number of spring elements = 0
 --- Number of bearing elements = 0
 --- Number of solid elements = 4431
 --- Number of condensed parts = 0
 --- Number of total elements = 8117

 *GET  _WALLBSOL  FROM  ACTI  ITEM=TIME WALL  VALUE=  7.39361111    

 *****  ANSYS SOLUTION ROUTINE  *****


 PERFORM A MODAL ANALYSIS
  THIS WILL BE A NEW ANALYSIS

 PARAMETER _THICKRATIO =     0.000000000    


 USE SYM. BLOCK LANCZOS MODE EXTRACTION METHOD
  EXTRACT     6 MODES
  NORMALIZE THE MODE SHAPES TO THE MASS MATRIX

 ERASE THE CURRENT DATABASE OUTPUT CONTROL TABLE.


 WRITE ALL  ITEMS TO THE DATABASE WITH A FREQUENCY OF NONE
   FOR ALL APPLICABLE ENTITIES

 WRITE NSOL ITEMS TO THE DATABASE WITH A FREQUENCY OF ALL 
   FOR ALL APPLICABLE ENTITIES

 WRITE ETMP ITEMS TO THE DATABASE WITH A FREQUENCY OF ALL 
   FOR ALL APPLICABLE ENTITIES


 EXPAND ALL EXTRACTED MODES
  DO NOT CALCULATE ELEMENT RESULTS

 DO NOT COMBINE ELEMENT SAVE DATA FILES (.esav) AFTER DISTRIBUTED PARALLEL SOLUTION

 DO NOT COMBINE ELEMENT MATRIX FILES (.emat) AFTER DISTRIBUTED PARALLEL SOLUTION

 DO NOT COMBINE ASSEMBLED MATRIX FILES (.full) AFTER DISTRIBUTED PARALLEL SOLUTION

 *GET  ANSINTER_  FROM  ACTI  ITEM=INT        VALUE=  0.00000000    

 *IF  ANSINTER_                         ( =   0.00000     )  NE  
      0                                 ( =   0.00000     )  THEN    

 *ENDIF

 *** NOTE ***                            CP =       0.719   TIME= 07:23:37
 The automatic domain decomposition logic has selected the MESH domain   
 decomposition method with 2 processes per solution.                     

 *****  ANSYS SOLVE    COMMAND  *****

 *** WARNING ***                         CP =       0.719   TIME= 07:23:37
 Element shape checking is currently inactive.  Issue SHPP,ON or         
 SHPP,WARN to reactivate, if desired.                                    

 *** NOTE ***                            CP =       0.750   TIME= 07:23:37
 The model data was checked and warning messages were found.             
  Please review output or errors file ( C:\Users\Akash                   
 Levy\Documents\NEM-Relay-CAD\ansys\_ProjectScratch\Scr7EDF\file0.err )  
 for these warning messages.                                             

 *** SELECTION OF ELEMENT TECHNOLOGIES FOR APPLICABLE ELEMENTS ***
      --- GIVE SUGGESTIONS AND RESET THE KEY OPTIONS ---

 ELEMENT TYPE    1 IS SOLID187. IT IS NOT ASSOCIATED WITH FULLY INCOMPRESSIBLE
 HYPERELASTIC MATERIALS. NO SUGGESTION IS AVAILABLE AND NO RESETTING IS NEEDED.

 ELEMENT TYPE    2 IS SOLID186. KEYOPT(2)=0 IS SUGGESTED AND HAS BEEN RESET.
  KEYOPT(1-12)=    0    0    0    0    0    0    0    0    0    0    0    0

 ELEMENT TYPE    3 IS SOLID186. KEYOPT(2)=0 IS SUGGESTED AND HAS BEEN RESET.
  KEYOPT(1-12)=    0    0    0    0    0    0    0    0    0    0    0    0

 ELEMENT TYPE    4 IS SOLID186. KEYOPT(2)=0 IS SUGGESTED AND HAS BEEN RESET.
  KEYOPT(1-12)=    0    0    0    0    0    0    0    0    0    0    0    0

 ELEMENT TYPE    5 IS SOLID186. KEYOPT(2)=0 IS SUGGESTED AND HAS BEEN RESET.
  KEYOPT(1-12)=    0    0    0    0    0    0    0    0    0    0    0    0

 ELEMENT TYPE    6 IS SOLID187. IT IS NOT ASSOCIATED WITH FULLY INCOMPRESSIBLE
 HYPERELASTIC MATERIALS. NO SUGGESTION IS AVAILABLE AND NO RESETTING IS NEEDED.

 ELEMENT TYPE    7 IS SOLID187. IT IS NOT ASSOCIATED WITH FULLY INCOMPRESSIBLE
 HYPERELASTIC MATERIALS. NO SUGGESTION IS AVAILABLE AND NO RESETTING IS NEEDED.

 ELEMENT TYPE    8 IS SOLID187. IT IS NOT ASSOCIATED WITH FULLY INCOMPRESSIBLE
 HYPERELASTIC MATERIALS. NO SUGGESTION IS AVAILABLE AND NO RESETTING IS NEEDED.

 ELEMENT TYPE    9 IS SOLID187. IT IS NOT ASSOCIATED WITH FULLY INCOMPRESSIBLE
 HYPERELASTIC MATERIALS. NO SUGGESTION IS AVAILABLE AND NO RESETTING IS NEEDED.

 ELEMENT TYPE   10 IS SOLID186. KEYOPT(2)=0 IS SUGGESTED AND HAS BEEN RESET.
  KEYOPT(1-12)=    0    0    0    0    0    0    0    0    0    0    0    0



 *** ANSYS - ENGINEERING ANALYSIS SYSTEM  RELEASE 2020 R1          20.1     ***
 DISTRIBUTED ANSYS Mechanical Enterprise                       

 20120530  VERSION=WINDOWS x64   07:23:37  APR 08, 2020 CP=      0.750

 relay--Modal (C5)                                                             



                       S O L U T I O N   O P T I O N S

   PROBLEM DIMENSIONALITY. . . . . . . . . . . . .3-D                  
   DEGREES OF FREEDOM. . . . . . UX   UY   UZ  
   ANALYSIS TYPE . . . . . . . . . . . . . . . . .MODAL                
      EXTRACTION METHOD. . . . . . . . . . . . . .BLOCK LANCZOS
   OFFSET TEMPERATURE FROM ABSOLUTE ZERO . . . . .  273.15    
   NUMBER OF MODES TO EXTRACT. . . . . . . . . . .     6
   GLOBALLY ASSEMBLED MATRIX . . . . . . . . . . .SYMMETRIC  
   NUMBER OF MODES TO EXPAND . . . . . . . . . . .ALL
   ELEMENT RESULTS CALCULATION . . . . . . . . . .OFF

 *** NOTE ***                            CP =       0.781   TIME= 07:23:37
 The conditions for direct assembly have been met.  No .emat or .erot    
 files will be produced.                                                 

 *** NOTE ***                            CP =       1.078   TIME= 07:23:37
 Symmetric Deformable- deformable contact pair identified by real        
 constant set 11 and contact element type 11 has been set up.  The       
 companion pair has real constant set ID 12.  Both pairs should have     
 the same behavior.                                                      
 ANSYS will deactivate the current pair and keep its companion pair,     
 resulting in asymmetric contact.                                        
 Linear contact is defined
 Contact algorithm: Augmented Lagrange method
 Contact detection at: Gauss integration point
 Contact stiffness factor FKN                  1.0000    
 The resulting initial contact stiffness      0.21047E+20
 Default penetration tolerance factor FTOLN   0.10000    
 The resulting penetration tolerance          0.13779E-07
 Default opening contact stiffness OPSF will be used.
 Default tangent stiffness factor FKT          1.0000    
 Use constant contact stiffness
 Default Max. friction stress TAUMAX          0.10000E+21
 Average contact surface length               0.26204E-06
 Average contact pair depth                   0.13779E-06
 Default pinball region factor PINB           0.25000    
 The resulting pinball region                 0.34447E-07
 Initial penetration/gap is excluded.
 Bonded contact (always) is defined.

 *** NOTE ***                            CP =       1.078   TIME= 07:23:37
 Max.  Initial penetration 0 was detected between contact element 8012   
 and target element 8093.                                                
 ****************************************
  

 *** NOTE ***                            CP =       1.078   TIME= 07:23:37
 Symmetric Deformable- deformable contact pair identified by real        
 constant set 12 and contact element type 11 has been set up.  The       
 companion pair has real constant set ID 11.  Both pairs should have     
 the same behavior.                                                      
 ANSYS will keep the current pair and deactivate its companion pair,     
 resulting in asymmetric contact.                                        
 Linear contact is defined
 Contact algorithm: Augmented Lagrange method
 Contact detection at: Gauss integration point
 Contact stiffness factor FKN                  1.0000    
 The resulting initial contact stiffness      0.21047E+20
 Default penetration tolerance factor FTOLN   0.10000    
 The resulting penetration tolerance          0.28801E-08
 Default opening contact stiffness OPSF will be used.
 Default tangent stiffness factor FKT          1.0000    
 Use constant contact stiffness
 Default Max. friction stress TAUMAX          0.10000E+21
 Average contact surface length               0.63931E-07
 Average contact pair depth                   0.28801E-07
 Default pinball region factor PINB           0.25000    
 The resulting pinball region                 0.72003E-08
 Initial penetration/gap is excluded.
 Bonded contact (always) is defined.

 *** NOTE ***                            CP =       1.078   TIME= 07:23:37
 Max.  Initial penetration 0 was detected between contact element 8030   
 and target element 8001.                                                
 ****************************************
  

 *** NOTE ***                            CP =       1.078   TIME= 07:23:37
 Symmetric Deformable- deformable contact pair identified by real        
 constant set 13 and contact element type 13 has been set up.  The       
 companion pair has real constant set ID 14.  Both pairs should have     
 the same behavior.                                                      
 ANSYS will deactivate the current pair and keep its companion pair,     
 resulting in asymmetric contact.                                        
 Linear contact is defined
 Contact algorithm: Augmented Lagrange method
 Contact detection at: Gauss integration point
 Contact stiffness factor FKN                  1.0000    
 The resulting initial contact stiffness      0.16482E+20
 Default penetration tolerance factor FTOLN   0.10000    
 The resulting penetration tolerance          0.17595E-07
 Default opening contact stiffness OPSF will be used.
 Default tangent stiffness factor FKT          1.0000    
 Use constant contact stiffness
 Default Max. friction stress TAUMAX          0.10000E+21
 Average contact surface length               0.28470E-06
 Average contact pair depth                   0.17595E-06
 Default pinball region factor PINB           0.25000    
 The resulting pinball region                 0.43988E-07
 Initial penetration/gap is excluded.
 Bonded contact (always) is defined.

 *** NOTE ***                            CP =       1.078   TIME= 07:23:37
 Max.  Initial penetration 0 was detected between contact element 8132   
 and target element 8188.                                                
 ****************************************
  

 *** NOTE ***                            CP =       1.078   TIME= 07:23:37
 Symmetric Deformable- deformable contact pair identified by real        
 constant set 14 and contact element type 13 has been set up.  The       
 companion pair has real constant set ID 13.  Both pairs should have     
 the same behavior.                                                      
 ANSYS will keep the current pair and deactivate its companion pair,     
 resulting in asymmetric contact.                                        
 Linear contact is defined
 Contact algorithm: Augmented Lagrange method
 Contact detection at: Gauss integration point
 Contact stiffness factor FKN                  1.0000    
 The resulting initial contact stiffness      0.16482E+20
 Default penetration tolerance factor FTOLN   0.10000    
 The resulting penetration tolerance          0.28801E-08
 Default opening contact stiffness OPSF will be used.
 Default tangent stiffness factor FKT          1.0000    
 Use constant contact stiffness
 Default Max. friction stress TAUMAX          0.10000E+21
 Average contact surface length               0.63931E-07
 Average contact pair depth                   0.28801E-07
 Default pinball region factor PINB           0.25000    
 The resulting pinball region                 0.72003E-08
 Initial penetration/gap is excluded.
 Bonded contact (always) is defined.

 *** NOTE ***                            CP =       1.078   TIME= 07:23:37
 Max.  Initial penetration 0 was detected between contact element 8146   
 and target element 8128.                                                
 ****************************************
  

 *** NOTE ***                            CP =       1.078   TIME= 07:23:37
 Symmetric Deformable- deformable contact pair identified by real        
 constant set 15 and contact element type 15 has been set up.  The       
 companion pair has real constant set ID 16.  Both pairs should have     
 the same behavior.                                                      
 ANSYS will deactivate the current pair and keep its companion pair,     
 resulting in asymmetric contact.                                        
 Linear contact is defined
 Contact algorithm: Augmented Lagrange method
 Contact detection at: Gauss integration point
 Contact stiffness factor FKN                  1.0000    
 The resulting initial contact stiffness      0.23299E+20
 Default penetration tolerance factor FTOLN   0.10000    
 The resulting penetration tolerance          0.12447E-07
 Default opening contact stiffness OPSF will be used.
 Default tangent stiffness factor FKT          1.0000    
 Use constant contact stiffness
 Default Max. friction stress TAUMAX          0.10000E+21
 Average contact surface length               0.26277E-06
 Average contact pair depth                   0.12447E-06
 Default pinball region factor PINB           0.25000    
 The resulting pinball region                 0.31118E-07
 Initial penetration/gap is excluded.
 Bonded contact (always) is defined.

 *** NOTE ***                            CP =       1.078   TIME= 07:23:37
 Max.  Initial penetration 0 was detected between contact element 8250   
 and target element 8334.                                                
 ****************************************
  

 *** NOTE ***                            CP =       1.078   TIME= 07:23:37
 Symmetric Deformable- deformable contact pair identified by real        
 constant set 16 and contact element type 15 has been set up.  The       
 companion pair has real constant set ID 15.  Both pairs should have     
 the same behavior.                                                      
 ANSYS will keep the current pair and deactivate its companion pair,     
 resulting in asymmetric contact.                                        
 Linear contact is defined
 Contact algorithm: Augmented Lagrange method
 Contact detection at: Gauss integration point
 Contact stiffness factor FKN                  1.0000    
 The resulting initial contact stiffness      0.23299E+20
 Default penetration tolerance factor FTOLN   0.10000    
 The resulting penetration tolerance          0.28801E-08
 Default opening contact stiffness OPSF will be used.
 Default tangent stiffness factor FKT          1.0000    
 Use constant contact stiffness
 Default Max. friction stress TAUMAX          0.10000E+21
 Average contact surface length               0.63931E-07
 Average contact pair depth                   0.28801E-07
 Default pinball region factor PINB           0.25000    
 The resulting pinball region                 0.72003E-08
 Initial penetration/gap is excluded.
 Bonded contact (always) is defined.

 *** NOTE ***                            CP =       1.078   TIME= 07:23:37
 Max.  Initial penetration 0 was detected between contact element 8268   
 and target element 8237.                                                
 ****************************************
  

 *** NOTE ***                            CP =       1.078   TIME= 07:23:37
 Symmetric Deformable- deformable contact pair identified by real        
 constant set 17 and contact element type 17 has been set up.  The       
 companion pair has real constant set ID 18.  Both pairs should have     
 the same behavior.                                                      
 ANSYS will deactivate the current pair and keep its companion pair,     
 resulting in asymmetric contact.                                        
 Linear contact is defined
 Contact algorithm: Augmented Lagrange method
 Contact detection at: Gauss integration point
 Contact stiffness factor FKN                  1.0000    
 The resulting initial contact stiffness      0.18302E+20
 Default penetration tolerance factor FTOLN   0.10000    
 The resulting penetration tolerance          0.15845E-07
 Default opening contact stiffness OPSF will be used.
 Default tangent stiffness factor FKT          1.0000    
 Use constant contact stiffness
 Default Max. friction stress TAUMAX          0.10000E+21
 Average contact surface length               0.29613E-06
 Average contact pair depth                   0.15845E-06
 Default pinball region factor PINB           0.25000    
 The resulting pinball region                 0.39613E-07
 Initial penetration/gap is excluded.
 Bonded contact (always) is defined.

 *** NOTE ***                            CP =       1.078   TIME= 07:23:37
 Max.  Initial penetration 0 was detected between contact element 8368   
 and target element 8453.                                                
 ****************************************
  

 *** NOTE ***                            CP =       1.078   TIME= 07:23:37
 Symmetric Deformable- deformable contact pair identified by real        
 constant set 18 and contact element type 17 has been set up.  The       
 companion pair has real constant set ID 17.  Both pairs should have     
 the same behavior.                                                      
 ANSYS will keep the current pair and deactivate its companion pair,     
 resulting in asymmetric contact.                                        
 Linear contact is defined
 Contact algorithm: Augmented Lagrange method
 Contact detection at: Gauss integration point
 Contact stiffness factor FKN                  1.0000    
 The resulting initial contact stiffness      0.18302E+20
 Default penetration tolerance factor FTOLN   0.10000    
 The resulting penetration tolerance          0.28801E-08
 Default opening contact stiffness OPSF will be used.
 Default tangent stiffness factor FKT          1.0000    
 Use constant contact stiffness
 Default Max. friction stress TAUMAX          0.10000E+21
 Average contact surface length               0.63931E-07
 Average contact pair depth                   0.28801E-07
 Default pinball region factor PINB           0.25000    
 The resulting pinball region                 0.72003E-08
 Initial penetration/gap is excluded.
 Bonded contact (always) is defined.

 *** NOTE ***                            CP =       1.078   TIME= 07:23:37
 Max.  Initial penetration 0 was detected between contact element 8384   
 and target element 8364.                                                
 ****************************************
  

 *** NOTE ***                            CP =       1.078   TIME= 07:23:37
 Symmetric Deformable- deformable contact pair identified by real        
 constant set 19 and contact element type 19 has been set up.  The       
 companion pair has real constant set ID 20.  Both pairs should have     
 the same behavior.                                                      
 ANSYS will deactivate the current pair and keep its companion pair,     
 resulting in asymmetric contact.                                        
 Linear contact is defined
 Contact algorithm: Augmented Lagrange method
 Contact detection at: Gauss integration point
 Contact stiffness factor FKN                  1.0000    
 The resulting initial contact stiffness      0.21572E+20
 Default penetration tolerance factor FTOLN   0.10000    
 The resulting penetration tolerance          0.13444E-07
 Default opening contact stiffness OPSF will be used.
 Default tangent stiffness factor FKT          1.0000    
 Use constant contact stiffness
 Default Max. friction stress TAUMAX          0.10000E+21
 Average contact surface length               0.22677E-06
 Average contact pair depth                   0.13444E-06
 Default pinball region factor PINB           0.25000    
 The resulting pinball region                 0.33609E-07
 Initial penetration/gap is excluded.
 Bonded contact (always) is defined.

 *** NOTE ***                            CP =       1.078   TIME= 07:23:37
 Max.  Initial penetration 0 was detected between contact element 8508   
 and target element 8648.                                                
 ****************************************
  

 *** NOTE ***                            CP =       1.078   TIME= 07:23:37
 Symmetric Deformable- deformable contact pair identified by real        
 constant set 20 and contact element type 19 has been set up.  The       
 companion pair has real constant set ID 19.  Both pairs should have     
 the same behavior.                                                      
 ANSYS will keep the current pair and deactivate its companion pair,     
 resulting in asymmetric contact.                                        
 Linear contact is defined
 Contact algorithm: Augmented Lagrange method
 Contact detection at: Gauss integration point
 Contact stiffness factor FKN                  1.0000    
 The resulting initial contact stiffness      0.21572E+20
 Default penetration tolerance factor FTOLN   0.10000    
 The resulting penetration tolerance          0.27857E-08
 Default opening contact stiffness OPSF will be used.
 Default tangent stiffness factor FKT          1.0000    
 Use constant contact stiffness
 Default Max. friction stress TAUMAX          0.10000E+21
 Average contact surface length               0.87182E-07
 Average contact pair depth                   0.27857E-07
 Default pinball region factor PINB           0.25000    
 The resulting pinball region                 0.69644E-08
 Initial penetration/gap is excluded.
 Bonded contact (always) is defined.

 *** NOTE ***                            CP =       1.078   TIME= 07:23:37
 Max.  Initial penetration 0 was detected between contact element 8548   
 and target element 8493.                                                
 ****************************************
  

 *** NOTE ***                            CP =       1.078   TIME= 07:23:37
 Symmetric Deformable- deformable contact pair identified by real        
 constant set 21 and contact element type 21 has been set up.  The       
 companion pair has real constant set ID 22.  Both pairs should have     
 the same behavior.                                                      
 ANSYS will deactivate the current pair and keep its companion pair,     
 resulting in asymmetric contact.                                        
 Linear contact is defined
 Contact algorithm: Augmented Lagrange method
 Contact detection at: Gauss integration point
 Contact stiffness factor FKN                  1.0000    
 The resulting initial contact stiffness      0.23062E+20
 Default penetration tolerance factor FTOLN   0.10000    
 The resulting penetration tolerance          0.12575E-07
 Default opening contact stiffness OPSF will be used.
 Default tangent stiffness factor FKT          1.0000    
 Use constant contact stiffness
 Default Max. friction stress TAUMAX          0.10000E+21
 Average contact surface length               0.22456E-06
 Average contact pair depth                   0.12575E-06
 Default pinball region factor PINB           0.25000    
 The resulting pinball region                 0.31437E-07
 Initial penetration/gap is excluded.
 Bonded contact (always) is defined.

 *** NOTE ***                            CP =       1.078   TIME= 07:23:37
 Max.  Initial penetration 0 was detected between contact element 8692   
 and target element 8801.                                                
 ****************************************
  

 *** NOTE ***                            CP =       1.078   TIME= 07:23:37
 Symmetric Deformable- deformable contact pair identified by real        
 constant set 22 and contact element type 21 has been set up.  The       
 companion pair has real constant set ID 21.  Both pairs should have     
 the same behavior.                                                      
 ANSYS will keep the current pair and deactivate its companion pair,     
 resulting in asymmetric contact.                                        
 Linear contact is defined
 Contact algorithm: Augmented Lagrange method
 Contact detection at: Gauss integration point
 Contact stiffness factor FKN                  1.0000    
 The resulting initial contact stiffness      0.23062E+20
 Default penetration tolerance factor FTOLN   0.10000    
 The resulting penetration tolerance          0.29165E-08
 Default opening contact stiffness OPSF will be used.
 Default tangent stiffness factor FKT          1.0000    
 Use constant contact stiffness
 Default Max. friction stress TAUMAX          0.10000E+21
 Average contact surface length               0.92489E-07
 Average contact pair depth                   0.29165E-07
 Default pinball region factor PINB           0.25000    
 The resulting pinball region                 0.72912E-08
 Initial penetration/gap is excluded.
 Bonded contact (always) is defined.

 *** NOTE ***                            CP =       1.078   TIME= 07:23:37
 Max.  Initial penetration 0 was detected between contact element 8732   
 and target element 8689.                                                
 ****************************************
  

 *** NOTE ***                            CP =       1.078   TIME= 07:23:37
 Symmetric Deformable- deformable contact pair identified by real        
 constant set 23 and contact element type 23 has been set up.  The       
 companion pair has real constant set ID 24.  Both pairs should have     
 the same behavior.                                                      
 ANSYS will deactivate the current pair and keep its companion pair,     
 resulting in asymmetric contact.                                        
 Linear contact is defined
 Contact algorithm: Augmented Lagrange method
 Contact detection at: Gauss integration point
 Contact stiffness factor FKN                  1.0000    
 The resulting initial contact stiffness      0.22884E+20
 Default penetration tolerance factor FTOLN   0.10000    
 The resulting penetration tolerance          0.12673E-07
 Default opening contact stiffness OPSF will be used.
 Default tangent stiffness factor FKT          1.0000    
 Use constant contact stiffness
 Default Max. friction stress TAUMAX          0.10000E+21
 Average contact surface length               0.22033E-06
 Average contact pair depth                   0.12673E-06
 Default pinball region factor PINB           0.25000    
 The resulting pinball region                 0.31682E-07
 Initial penetration/gap is excluded.
 Bonded contact (always) is defined.

 *** NOTE ***                            CP =       1.078   TIME= 07:23:37
 Max.  Initial penetration 0 was detected between contact element 8872   
 and target element 8981.                                                
 ****************************************
  

 *** NOTE ***                            CP =       1.078   TIME= 07:23:37
 Symmetric Deformable- deformable contact pair identified by real        
 constant set 24 and contact element type 23 has been set up.  The       
 companion pair has real constant set ID 23.  Both pairs should have     
 the same behavior.                                                      
 ANSYS will keep the current pair and deactivate its companion pair,     
 resulting in asymmetric contact.                                        
 Linear contact is defined
 Contact algorithm: Augmented Lagrange method
 Contact detection at: Gauss integration point
 Contact stiffness factor FKN                  1.0000    
 The resulting initial contact stiffness      0.22884E+20
 Default penetration tolerance factor FTOLN   0.10000    
 The resulting penetration tolerance          0.25751E-08
 Default opening contact stiffness OPSF will be used.
 Default tangent stiffness factor FKT          1.0000    
 Use constant contact stiffness
 Default Max. friction stress TAUMAX          0.10000E+21
 Average contact surface length               0.80146E-07
 Average contact pair depth                   0.25751E-07
 Default pinball region factor PINB           0.25000    
 The resulting pinball region                 0.64378E-08
 Initial penetration/gap is excluded.
 Bonded contact (always) is defined.

 *** NOTE ***                            CP =       1.078   TIME= 07:23:37
 Max.  Initial penetration 0 was detected between contact element 8916   
 and target element 8835.                                                
 ****************************************
  

 *** NOTE ***                            CP =       1.078   TIME= 07:23:37
 Symmetric Deformable- deformable contact pair identified by real        
 constant set 25 and contact element type 25 has been set up.  The       
 companion pair has real constant set ID 26.  Both pairs should have     
 the same behavior.                                                      
 ANSYS will deactivate the current pair and keep its companion pair,     
 resulting in asymmetric contact.                                        
 Linear contact is defined
 Contact algorithm: Augmented Lagrange method
 Contact detection at: Gauss integration point
 Contact stiffness factor FKN                  1.0000    
 The resulting initial contact stiffness      0.20339E+20
 Default penetration tolerance factor FTOLN   0.10000    
 The resulting penetration tolerance          0.14259E-07
 Default opening contact stiffness OPSF will be used.
 Default tangent stiffness factor FKT          1.0000    
 Use constant contact stiffness
 Default Max. friction stress TAUMAX          0.10000E+21
 Average contact surface length               0.22359E-06
 Average contact pair depth                   0.14259E-06
 Default pinball region factor PINB           0.25000    
 The resulting pinball region                 0.35647E-07
 Initial penetration/gap is excluded.
 Bonded contact (always) is defined.

 *** NOTE ***                            CP =       1.078   TIME= 07:23:37
 Max.  Initial penetration 0 was detected between contact element 9070   
 and target element 9187.                                                
 ****************************************
  

 *** NOTE ***                            CP =       1.094   TIME= 07:23:37
 Symmetric Deformable- deformable contact pair identified by real        
 constant set 26 and contact element type 25 has been set up.  The       
 companion pair has real constant set ID 25.  Both pairs should have     
 the same behavior.                                                      
 ANSYS will keep the current pair and deactivate its companion pair,     
 resulting in asymmetric contact.                                        
 Linear contact is defined
 Contact algorithm: Augmented Lagrange method
 Contact detection at: Gauss integration point
 Contact stiffness factor FKN                  1.0000    
 The resulting initial contact stiffness      0.20339E+20
 Default penetration tolerance factor FTOLN   0.10000    
 The resulting penetration tolerance          0.27858E-08
 Default opening contact stiffness OPSF will be used.
 Default tangent stiffness factor FKT          1.0000    
 Use constant contact stiffness
 Default Max. friction stress TAUMAX          0.10000E+21
 Average contact surface length               0.86829E-07
 Average contact pair depth                   0.27858E-07
 Default pinball region factor PINB           0.25000    
 The resulting pinball region                 0.69645E-08
 Initial penetration/gap is excluded.
 Bonded contact (always) is defined.

 *** NOTE ***                            CP =       1.094   TIME= 07:23:37
 Max.  Initial penetration 0 was detected between contact element 9110   
 and target element 9050.                                                
 ****************************************
  

 *** NOTE ***                            CP =       1.094   TIME= 07:23:37
 Symmetric Deformable- deformable contact pair identified by real        
 constant set 27 and contact element type 27 has been set up.  The       
 companion pair has real constant set ID 28.  Both pairs should have     
 the same behavior.                                                      
 ANSYS will keep the current pair and deactivate its companion pair,     
 resulting in asymmetric contact.                                        
 Linear contact is defined
 Contact algorithm: Augmented Lagrange method
 Contact detection at: Gauss integration point
 Contact stiffness factor FKN                  1.0000    
 The resulting initial contact stiffness      0.25329E+20
 Default penetration tolerance factor FTOLN   0.10000    
 The resulting penetration tolerance          0.11449E-07
 Default opening contact stiffness OPSF will be used.
 Default tangent stiffness factor FKT          1.0000    
 Use constant contact stiffness
 Default Max. friction stress TAUMAX          0.10000E+21
 Average contact surface length               0.26871E-06
 Average contact pair depth                   0.11449E-06
 Default pinball region factor PINB           0.25000    
 The resulting pinball region                 0.28623E-07
 Initial penetration/gap is excluded.
 Bonded contact (always) is defined.

 *** NOTE ***                            CP =       1.094   TIME= 07:23:37
 Max.  Initial penetration 3.97046694E-23 was detected between contact   
 element 9241 and target element 9293.                                   
 ****************************************
  

 *** NOTE ***                            CP =       1.094   TIME= 07:23:37
 Symmetric Deformable- deformable contact pair identified by real        
 constant set 28 and contact element type 27 has been set up.  The       
 companion pair has real constant set ID 27.  Both pairs should have     
 the same behavior.                                                      
 ANSYS will deactivate the current pair and keep its companion pair,     
 resulting in asymmetric contact.                                        
 Linear contact is defined
 Contact algorithm: Augmented Lagrange method
 Contact detection at: Gauss integration point
 Contact stiffness factor FKN                  1.0000    
 The resulting initial contact stiffness      0.25329E+20
 Default penetration tolerance factor FTOLN   0.10000    
 The resulting penetration tolerance          0.18000E-07
 Default opening contact stiffness OPSF will be used.
 Default tangent stiffness factor FKT          1.0000    
 Use constant contact stiffness
 Default Max. friction stress TAUMAX          0.10000E+21
 Average contact surface length               0.60000E-06
 Average contact pair depth                   0.18000E-06
 Default pinball region factor PINB           0.25000    
 The resulting pinball region                 0.45000E-07
 Initial penetration/gap is excluded.
 Bonded contact (always) is defined.

 *** NOTE ***                            CP =       1.094   TIME= 07:23:37
 Max.  Initial penetration 1.32348898E-23 was detected between contact   
 element 9274 and target element 9237.                                   
 ****************************************
  

 *** NOTE ***                            CP =       1.094   TIME= 07:23:37
 Symmetric Deformable- deformable contact pair identified by real        
 constant set 29 and contact element type 29 has been set up.  The       
 companion pair has real constant set ID 30.  Both pairs should have     
 the same behavior.                                                      
 ANSYS will keep the current pair and deactivate its companion pair,     
 resulting in asymmetric contact.                                        
 Small sliding logic is assumed
 Contact algorithm: Augmented Lagrange method
 Contact detection at: Gauss integration point
 Contact stiffness factor FKN                  1.0000    
 The resulting initial contact stiffness      0.45667E+20
 Default penetration tolerance factor FTOLN   0.10000    
 The resulting penetration tolerance          0.96658E-08
 Default tangent stiffness factor FKT          1.0000    
 Default elastic slip factor SLTOL            0.50000E-02
 The resulting elastic slip tolerance         0.80037E-09
 Update contact stiffness at each iteration
 Default Max. friction stress TAUMAX          0.10000E+21
 Average contact surface length               0.16007E-06
 Average contact pair depth                   0.96658E-07
 Default pinball region factor PINB            1.0000    
 *WARNING*: The default pinball radius may be too small to capture       
 contacting zone under small sliding assumption.  Redefine the pinball   
 radius if necessary.                                                    
 The resulting pinball region                 0.96658E-07
 *WARNING*: Initial penetration is included.
 Rough contact is defined.

 *** NOTE ***                            CP =       1.094   TIME= 07:23:37
 Min.  Initial gap 5.E-08 was detected between contact element 11169 and 
 target element 11601.                                                   
 You may move entire target surface by: x= -2.456692009E-24, y=          
 2.028093337E-24, z= 5.E-08, to bring it in contact.                     
 ****************************************
  

 *** NOTE ***                            CP =       1.094   TIME= 07:23:37
 Symmetric Deformable- deformable contact pair identified by real        
 constant set 30 and contact element type 29 has been set up.  The       
 companion pair has real constant set ID 29.  Both pairs should have     
 the same behavior.                                                      
 ANSYS will deactivate the current pair and keep its companion pair,     
 resulting in asymmetric contact.                                        
 Small sliding logic is assumed
 Contact algorithm: Augmented Lagrange method
 Contact detection at: Gauss integration point
 Contact stiffness factor FKN                  1.0000    
 The resulting initial contact stiffness      0.45667E+20
 Default penetration tolerance factor FTOLN   0.10000    
 The resulting penetration tolerance          0.18000E-07
 Default tangent stiffness factor FKT          1.0000    
 Default elastic slip factor SLTOL            0.50000E-02
 The resulting elastic slip tolerance         0.30000E-08
 Update contact stiffness at each iteration
 Default Max. friction stress TAUMAX          0.10000E+21
 Average contact surface length               0.60000E-06
 Average contact pair depth                   0.18000E-06
 Default pinball region factor PINB            1.0000    
 The resulting pinball region                 0.18000E-06

 *** NOTE ***                            CP =       1.094   TIME= 07:23:37
 One of the contact searching regions contains at least 73 target        
 elements.  You may reduce the pinball radius.                           
 *WARNING*: Initial penetration is included.
 Rough contact is defined.

 *** NOTE ***                            CP =       1.094   TIME= 07:23:37
 Min.  Initial gap 1.E-07 was detected between contact element 11489 and 
 target element 9445.                                                    
 You may move entire target surface by: x= -3.673577961E-24, y=          
 1.868413509E-24, z= -1.E-07, to bring it in contact.                    
 ****************************************
  

 *** WARNING ***                         CP =       1.094   TIME= 07:23:37
 Maximum contact stiffness 4.566666485E+19 is too big which can cause an 
 accuracy problem, you may scale the force units in the model.           

 *** WARNING ***                         CP =       1.094   TIME= 07:23:37
 Minimum contact depth 2.575118698E-08 is too small which can cause an   
 accuracy problem, you may scale the length units in the model.          
  
  

  
  
     D I S T R I B U T E D   D O M A I N   D E C O M P O S E R
  
  ...Number of elements: 8117
  ...Number of nodes:    11080
  ...Decompose to 2 CPU domains
  ...Element load balance ratio =     1.092


                      L O A D   S T E P   O P T I O N S

   LOAD STEP NUMBER. . . . . . . . . . . . . . . .     1
   THERMAL STRAINS INCLUDED IN THE LOAD VECTOR . .   YES
   PRINT OUTPUT CONTROLS . . . . . . . . . . . . .NO PRINTOUT
   DATABASE OUTPUT CONTROLS
      ITEM     FREQUENCY   COMPONENT
       ALL       NONE               
      NSOL        ALL               
      ETMP        ALL               


 *** NOTE ***                            CP =       1.266   TIME= 07:23:37
 Symmetric Deformable- deformable contact pair identified by real        
 constant set 11 and contact element type 11 has been set up.  The       
 companion pair has real constant set ID 12.  Both pairs should have     
 the same behavior.                                                      
 ANSYS will deactivate the current pair and keep its companion pair,     
 resulting in asymmetric contact.                                        
 Linear contact is defined
 Contact algorithm: Augmented Lagrange method
 Contact detection at: Gauss integration point
 Contact stiffness factor FKN                  1.0000    
 The resulting initial contact stiffness      0.21047E+20
 Default penetration tolerance factor FTOLN   0.10000    
 The resulting penetration tolerance          0.13779E-07
 Default opening contact stiffness OPSF will be used.
 Default tangent stiffness factor FKT          1.0000    
 Use constant contact stiffness
 Default Max. friction stress TAUMAX          0.10000E+21
 Average contact surface length               0.26204E-06
 Average contact pair depth                   0.13779E-06
 Default pinball region factor PINB           0.25000    
 The resulting pinball region                 0.34447E-07
 Initial penetration/gap is excluded.
 Bonded contact (always) is defined.

 *** NOTE ***                            CP =       1.266   TIME= 07:23:37
 Max.  Initial penetration 0 was detected between contact element 8012   
 and target element 8093.                                                
 ****************************************
  

 *** NOTE ***                            CP =       1.266   TIME= 07:23:37
 Symmetric Deformable- deformable contact pair identified by real        
 constant set 12 and contact element type 11 has been set up.  The       
 companion pair has real constant set ID 11.  Both pairs should have     
 the same behavior.                                                      
 ANSYS will keep the current pair and deactivate its companion pair,     
 resulting in asymmetric contact.                                        
 Linear contact is defined
 Contact algorithm: Augmented Lagrange method
 Contact detection at: Gauss integration point
 Contact stiffness factor FKN                  1.0000    
 The resulting initial contact stiffness      0.21047E+20
 Default penetration tolerance factor FTOLN   0.10000    
 The resulting penetration tolerance          0.28801E-08
 Default opening contact stiffness OPSF will be used.
 Default tangent stiffness factor FKT          1.0000    
 Use constant contact stiffness
 Default Max. friction stress TAUMAX          0.10000E+21
 Average contact surface length               0.63931E-07
 Average contact pair depth                   0.28801E-07
 Default pinball region factor PINB           0.25000    
 The resulting pinball region                 0.72003E-08
 Initial penetration/gap is excluded.
 Bonded contact (always) is defined.

 *** NOTE ***                            CP =       1.266   TIME= 07:23:37
 Max.  Initial penetration 0 was detected between contact element 8030   
 and target element 8001.                                                
 ****************************************
  

 *** NOTE ***                            CP =       1.266   TIME= 07:23:37
 Symmetric Deformable- deformable contact pair identified by real        
 constant set 13 and contact element type 13 has been set up.  The       
 companion pair has real constant set ID 14.  Both pairs should have     
 the same behavior.                                                      
 ANSYS will deactivate the current pair and keep its companion pair,     
 resulting in asymmetric contact.                                        
 Linear contact is defined
 Contact algorithm: Augmented Lagrange method
 Contact detection at: Gauss integration point
 Contact stiffness factor FKN                  1.0000    
 The resulting initial contact stiffness      0.16482E+20
 Default penetration tolerance factor FTOLN   0.10000    
 The resulting penetration tolerance          0.17595E-07
 Default opening contact stiffness OPSF will be used.
 Default tangent stiffness factor FKT          1.0000    
 Use constant contact stiffness
 Default Max. friction stress TAUMAX          0.10000E+21
 Average contact surface length               0.28470E-06
 Average contact pair depth                   0.17595E-06
 Default pinball region factor PINB           0.25000    
 The resulting pinball region                 0.43988E-07
 Initial penetration/gap is excluded.
 Bonded contact (always) is defined.

 *** NOTE ***                            CP =       1.266   TIME= 07:23:37
 Max.  Initial penetration 0 was detected between contact element 8132   
 and target element 8188.                                                
 ****************************************
  

 *** NOTE ***                            CP =       1.266   TIME= 07:23:37
 Symmetric Deformable- deformable contact pair identified by real        
 constant set 14 and contact element type 13 has been set up.  The       
 companion pair has real constant set ID 13.  Both pairs should have     
 the same behavior.                                                      
 ANSYS will keep the current pair and deactivate its companion pair,     
 resulting in asymmetric contact.                                        
 Linear contact is defined
 Contact algorithm: Augmented Lagrange method
 Contact detection at: Gauss integration point
 Contact stiffness factor FKN                  1.0000    
 The resulting initial contact stiffness      0.16482E+20
 Default penetration tolerance factor FTOLN   0.10000    
 The resulting penetration tolerance          0.28801E-08
 Default opening contact stiffness OPSF will be used.
 Default tangent stiffness factor FKT          1.0000    
 Use constant contact stiffness
 Default Max. friction stress TAUMAX          0.10000E+21
 Average contact surface length               0.63931E-07
 Average contact pair depth                   0.28801E-07
 Default pinball region factor PINB           0.25000    
 The resulting pinball region                 0.72003E-08
 Initial penetration/gap is excluded.
 Bonded contact (always) is defined.

 *** NOTE ***                            CP =       1.266   TIME= 07:23:37
 Max.  Initial penetration 0 was detected between contact element 8146   
 and target element 8128.                                                
 ****************************************
  

 *** NOTE ***                            CP =       1.266   TIME= 07:23:37
 Symmetric Deformable- deformable contact pair identified by real        
 constant set 15 and contact element type 15 has been set up.  The       
 companion pair has real constant set ID 16.  Both pairs should have     
 the same behavior.                                                      
 ANSYS will deactivate the current pair and keep its companion pair,     
 resulting in asymmetric contact.                                        
 Linear contact is defined
 Contact algorithm: Augmented Lagrange method
 Contact detection at: Gauss integration point
 Contact stiffness factor FKN                  1.0000    
 The resulting initial contact stiffness      0.23299E+20
 Default penetration tolerance factor FTOLN   0.10000    
 The resulting penetration tolerance          0.12447E-07
 Default opening contact stiffness OPSF will be used.
 Default tangent stiffness factor FKT          1.0000    
 Use constant contact stiffness
 Default Max. friction stress TAUMAX          0.10000E+21
 Average contact surface length               0.26277E-06
 Average contact pair depth                   0.12447E-06
 Default pinball region factor PINB           0.25000    
 The resulting pinball region                 0.31118E-07
 Initial penetration/gap is excluded.
 Bonded contact (always) is defined.

 *** NOTE ***                            CP =       1.266   TIME= 07:23:37
 Max.  Initial penetration 0 was detected between contact element 8250   
 and target element 8334.                                                
 ****************************************
  

 *** NOTE ***                            CP =       1.266   TIME= 07:23:37
 Symmetric Deformable- deformable contact pair identified by real        
 constant set 16 and contact element type 15 has been set up.  The       
 companion pair has real constant set ID 15.  Both pairs should have     
 the same behavior.                                                      
 ANSYS will keep the current pair and deactivate its companion pair,     
 resulting in asymmetric contact.                                        
 Linear contact is defined
 Contact algorithm: Augmented Lagrange method
 Contact detection at: Gauss integration point
 Contact stiffness factor FKN                  1.0000    
 The resulting initial contact stiffness      0.23299E+20
 Default penetration tolerance factor FTOLN   0.10000    
 The resulting penetration tolerance          0.28801E-08
 Default opening contact stiffness OPSF will be used.
 Default tangent stiffness factor FKT          1.0000    
 Use constant contact stiffness
 Default Max. friction stress TAUMAX          0.10000E+21
 Average contact surface length               0.63931E-07
 Average contact pair depth                   0.28801E-07
 Default pinball region factor PINB           0.25000    
 The resulting pinball region                 0.72003E-08
 Initial penetration/gap is excluded.
 Bonded contact (always) is defined.

 *** NOTE ***                            CP =       1.266   TIME= 07:23:37
 Max.  Initial penetration 0 was detected between contact element 8268   
 and target element 8237.                                                
 ****************************************
  

 *** NOTE ***                            CP =       1.266   TIME= 07:23:37
 Symmetric Deformable- deformable contact pair identified by real        
 constant set 17 and contact element type 17 has been set up.  The       
 companion pair has real constant set ID 18.  Both pairs should have     
 the same behavior.                                                      
 ANSYS will deactivate the current pair and keep its companion pair,     
 resulting in asymmetric contact.                                        
 Linear contact is defined
 Contact algorithm: Augmented Lagrange method
 Contact detection at: Gauss integration point
 Contact stiffness factor FKN                  1.0000    
 The resulting initial contact stiffness      0.18302E+20
 Default penetration tolerance factor FTOLN   0.10000    
 The resulting penetration tolerance          0.15845E-07
 Default opening contact stiffness OPSF will be used.
 Default tangent stiffness factor FKT          1.0000    
 Use constant contact stiffness
 Default Max. friction stress TAUMAX          0.10000E+21
 Average contact surface length               0.29613E-06
 Average contact pair depth                   0.15845E-06
 Default pinball region factor PINB           0.25000    
 The resulting pinball region                 0.39613E-07
 Initial penetration/gap is excluded.
 Bonded contact (always) is defined.

 *** NOTE ***                            CP =       1.266   TIME= 07:23:37
 Max.  Initial penetration 0 was detected between contact element 8368   
 and target element 8453.                                                
 ****************************************
  

 *** NOTE ***                            CP =       1.266   TIME= 07:23:37
 Symmetric Deformable- deformable contact pair identified by real        
 constant set 18 and contact element type 17 has been set up.  The       
 companion pair has real constant set ID 17.  Both pairs should have     
 the same behavior.                                                      
 ANSYS will keep the current pair and deactivate its companion pair,     
 resulting in asymmetric contact.                                        
 Linear contact is defined
 Contact algorithm: Augmented Lagrange method
 Contact detection at: Gauss integration point
 Contact stiffness factor FKN                  1.0000    
 The resulting initial contact stiffness      0.18302E+20
 Default penetration tolerance factor FTOLN   0.10000    
 The resulting penetration tolerance          0.28801E-08
 Default opening contact stiffness OPSF will be used.
 Default tangent stiffness factor FKT          1.0000    
 Use constant contact stiffness
 Default Max. friction stress TAUMAX          0.10000E+21
 Average contact surface length               0.63931E-07
 Average contact pair depth                   0.28801E-07
 Default pinball region factor PINB           0.25000    
 The resulting pinball region                 0.72003E-08
 Initial penetration/gap is excluded.
 Bonded contact (always) is defined.

 *** NOTE ***                            CP =       1.266   TIME= 07:23:37
 Max.  Initial penetration 0 was detected between contact element 8384   
 and target element 8364.                                                
 ****************************************
  

 *** NOTE ***                            CP =       1.266   TIME= 07:23:37
 Symmetric Deformable- deformable contact pair identified by real        
 constant set 19 and contact element type 19 has been set up.  The       
 companion pair has real constant set ID 20.  Both pairs should have     
 the same behavior.                                                      
 ANSYS will deactivate the current pair and keep its companion pair,     
 resulting in asymmetric contact.                                        
 Linear contact is defined
 Contact algorithm: Augmented Lagrange method
 Contact detection at: Gauss integration point
 Contact stiffness factor FKN                  1.0000    
 The resulting initial contact stiffness      0.21572E+20
 Default penetration tolerance factor FTOLN   0.10000    
 The resulting penetration tolerance          0.13444E-07
 Default opening contact stiffness OPSF will be used.
 Default tangent stiffness factor FKT          1.0000    
 Use constant contact stiffness
 Default Max. friction stress TAUMAX          0.10000E+21
 Average contact surface length               0.22677E-06
 Average contact pair depth                   0.13444E-06
 Default pinball region factor PINB           0.25000    
 The resulting pinball region                 0.33609E-07
 Initial penetration/gap is excluded.
 Bonded contact (always) is defined.

 *** NOTE ***                            CP =       1.266   TIME= 07:23:37
 Max.  Initial penetration 0 was detected between contact element 8508   
 and target element 8648.                                                
 ****************************************
  

 *** NOTE ***                            CP =       1.266   TIME= 07:23:37
 Symmetric Deformable- deformable contact pair identified by real        
 constant set 20 and contact element type 19 has been set up.  The       
 companion pair has real constant set ID 19.  Both pairs should have     
 the same behavior.                                                      
 ANSYS will keep the current pair and deactivate its companion pair,     
 resulting in asymmetric contact.                                        
 Linear contact is defined
 Contact algorithm: Augmented Lagrange method
 Contact detection at: Gauss integration point
 Contact stiffness factor FKN                  1.0000    
 The resulting initial contact stiffness      0.21572E+20
 Default penetration tolerance factor FTOLN   0.10000    
 The resulting penetration tolerance          0.27857E-08
 Default opening contact stiffness OPSF will be used.
 Default tangent stiffness factor FKT          1.0000    
 Use constant contact stiffness
 Default Max. friction stress TAUMAX          0.10000E+21
 Average contact surface length               0.87182E-07
 Average contact pair depth                   0.27857E-07
 Default pinball region factor PINB           0.25000    
 The resulting pinball region                 0.69644E-08
 Initial penetration/gap is excluded.
 Bonded contact (always) is defined.

 *** NOTE ***                            CP =       1.266   TIME= 07:23:37
 Max.  Initial penetration 0 was detected between contact element 8548   
 and target element 8493.                                                
 ****************************************
  

 *** NOTE ***                            CP =       1.266   TIME= 07:23:37
 Symmetric Deformable- deformable contact pair identified by real        
 constant set 21 and contact element type 21 has been set up.  The       
 companion pair has real constant set ID 22.  Both pairs should have     
 the same behavior.                                                      
 ANSYS will deactivate the current pair and keep its companion pair,     
 resulting in asymmetric contact.                                        
 Linear contact is defined
 Contact algorithm: Augmented Lagrange method
 Contact detection at: Gauss integration point
 Contact stiffness factor FKN                  1.0000    
 The resulting initial contact stiffness      0.23062E+20
 Default penetration tolerance factor FTOLN   0.10000    
 The resulting penetration tolerance          0.12575E-07
 Default opening contact stiffness OPSF will be used.
 Default tangent stiffness factor FKT          1.0000    
 Use constant contact stiffness
 Default Max. friction stress TAUMAX          0.10000E+21
 Average contact surface length               0.22456E-06
 Average contact pair depth                   0.12575E-06
 Default pinball region factor PINB           0.25000    
 The resulting pinball region                 0.31437E-07
 Initial penetration/gap is excluded.
 Bonded contact (always) is defined.

 *** NOTE ***                            CP =       1.266   TIME= 07:23:37
 Max.  Initial penetration 0 was detected between contact element 8692   
 and target element 8801.                                                
 ****************************************
  

 *** NOTE ***                            CP =       1.266   TIME= 07:23:37
 Symmetric Deformable- deformable contact pair identified by real        
 constant set 22 and contact element type 21 has been set up.  The       
 companion pair has real constant set ID 21.  Both pairs should have     
 the same behavior.                                                      
 ANSYS will keep the current pair and deactivate its companion pair,     
 resulting in asymmetric contact.                                        
 Linear contact is defined
 Contact algorithm: Augmented Lagrange method
 Contact detection at: Gauss integration point
 Contact stiffness factor FKN                  1.0000    
 The resulting initial contact stiffness      0.23062E+20
 Default penetration tolerance factor FTOLN   0.10000    
 The resulting penetration tolerance          0.29165E-08
 Default opening contact stiffness OPSF will be used.
 Default tangent stiffness factor FKT          1.0000    
 Use constant contact stiffness
 Default Max. friction stress TAUMAX          0.10000E+21
 Average contact surface length               0.92489E-07
 Average contact pair depth                   0.29165E-07
 Default pinball region factor PINB           0.25000    
 The resulting pinball region                 0.72912E-08
 Initial penetration/gap is excluded.
 Bonded contact (always) is defined.

 *** NOTE ***                            CP =       1.266   TIME= 07:23:37
 Max.  Initial penetration 0 was detected between contact element 8732   
 and target element 8689.                                                
 ****************************************
  

 *** NOTE ***                            CP =       1.266   TIME= 07:23:37
 Symmetric Deformable- deformable contact pair identified by real        
 constant set 23 and contact element type 23 has been set up.  The       
 companion pair has real constant set ID 24.  Both pairs should have     
 the same behavior.                                                      
 ANSYS will deactivate the current pair and keep its companion pair,     
 resulting in asymmetric contact.                                        
 Linear contact is defined
 Contact algorithm: Augmented Lagrange method
 Contact detection at: Gauss integration point
 Contact stiffness factor FKN                  1.0000    
 The resulting initial contact stiffness      0.22884E+20
 Default penetration tolerance factor FTOLN   0.10000    
 The resulting penetration tolerance          0.12673E-07
 Default opening contact stiffness OPSF will be used.
 Default tangent stiffness factor FKT          1.0000    
 Use constant contact stiffness
 Default Max. friction stress TAUMAX          0.10000E+21
 Average contact surface length               0.22033E-06
 Average contact pair depth                   0.12673E-06
 Default pinball region factor PINB           0.25000    
 The resulting pinball region                 0.31682E-07
 Initial penetration/gap is excluded.
 Bonded contact (always) is defined.

 *** NOTE ***                            CP =       1.266   TIME= 07:23:37
 Max.  Initial penetration 0 was detected between contact element 8872   
 and target element 8981.                                                
 ****************************************
  

 *** NOTE ***                            CP =       1.266   TIME= 07:23:37
 Symmetric Deformable- deformable contact pair identified by real        
 constant set 24 and contact element type 23 has been set up.  The       
 companion pair has real constant set ID 23.  Both pairs should have     
 the same behavior.                                                      
 ANSYS will keep the current pair and deactivate its companion pair,     
 resulting in asymmetric contact.                                        
 Linear contact is defined
 Contact algorithm: Augmented Lagrange method
 Contact detection at: Gauss integration point
 Contact stiffness factor FKN                  1.0000    
 The resulting initial contact stiffness      0.22884E+20
 Default penetration tolerance factor FTOLN   0.10000    
 The resulting penetration tolerance          0.25751E-08
 Default opening contact stiffness OPSF will be used.
 Default tangent stiffness factor FKT          1.0000    
 Use constant contact stiffness
 Default Max. friction stress TAUMAX          0.10000E+21
 Average contact surface length               0.80146E-07
 Average contact pair depth                   0.25751E-07
 Default pinball region factor PINB           0.25000    
 The resulting pinball region                 0.64378E-08
 Initial penetration/gap is excluded.
 Bonded contact (always) is defined.

 *** NOTE ***                            CP =       1.266   TIME= 07:23:37
 Max.  Initial penetration 0 was detected between contact element 8916   
 and target element 8835.                                                
 ****************************************
  

 *** NOTE ***                            CP =       1.266   TIME= 07:23:37
 Symmetric Deformable- deformable contact pair identified by real        
 constant set 25 and contact element type 25 has been set up.  The       
 companion pair has real constant set ID 26.  Both pairs should have     
 the same behavior.                                                      
 ANSYS will deactivate the current pair and keep its companion pair,     
 resulting in asymmetric contact.                                        
 Linear contact is defined
 Contact algorithm: Augmented Lagrange method
 Contact detection at: Gauss integration point
 Contact stiffness factor FKN                  1.0000    
 The resulting initial contact stiffness      0.20339E+20
 Default penetration tolerance factor FTOLN   0.10000    
 The resulting penetration tolerance          0.14259E-07
 Default opening contact stiffness OPSF will be used.
 Default tangent stiffness factor FKT          1.0000    
 Use constant contact stiffness
 Default Max. friction stress TAUMAX          0.10000E+21
 Average contact surface length               0.22359E-06
 Average contact pair depth                   0.14259E-06
 Default pinball region factor PINB           0.25000    
 The resulting pinball region                 0.35647E-07
 Initial penetration/gap is excluded.
 Bonded contact (always) is defined.

 *** NOTE ***                            CP =       1.266   TIME= 07:23:37
 Max.  Initial penetration 0 was detected between contact element 9070   
 and target element 9187.                                                
 ****************************************
  

 *** NOTE ***                            CP =       1.266   TIME= 07:23:37
 Symmetric Deformable- deformable contact pair identified by real        
 constant set 26 and contact element type 25 has been set up.  The       
 companion pair has real constant set ID 25.  Both pairs should have     
 the same behavior.                                                      
 ANSYS will keep the current pair and deactivate its companion pair,     
 resulting in asymmetric contact.                                        
 Linear contact is defined
 Contact algorithm: Augmented Lagrange method
 Contact detection at: Gauss integration point
 Contact stiffness factor FKN                  1.0000    
 The resulting initial contact stiffness      0.20339E+20
 Default penetration tolerance factor FTOLN   0.10000    
 The resulting penetration tolerance          0.27858E-08
 Default opening contact stiffness OPSF will be used.
 Default tangent stiffness factor FKT          1.0000    
 Use constant contact stiffness
 Default Max. friction stress TAUMAX          0.10000E+21
 Average contact surface length               0.86829E-07
 Average contact pair depth                   0.27858E-07
 Default pinball region factor PINB           0.25000    
 The resulting pinball region                 0.69645E-08
 Initial penetration/gap is excluded.
 Bonded contact (always) is defined.

 *** NOTE ***                            CP =       1.266   TIME= 07:23:37
 Max.  Initial penetration 0 was detected between contact element 9110   
 and target element 9050.                                                
 ****************************************
  

 *** NOTE ***                            CP =       1.266   TIME= 07:23:37
 Symmetric Deformable- deformable contact pair identified by real        
 constant set 27 and contact element type 27 has been set up.  The       
 companion pair has real constant set ID 28.  Both pairs should have     
 the same behavior.                                                      
 ANSYS will keep the current pair and deactivate its companion pair,     
 resulting in asymmetric contact.                                        
 Linear contact is defined
 Contact algorithm: Augmented Lagrange method
 Contact detection at: Gauss integration point
 Contact stiffness factor FKN                  1.0000    
 The resulting initial contact stiffness      0.25329E+20
 Default penetration tolerance factor FTOLN   0.10000    
 The resulting penetration tolerance          0.11449E-07
 Default opening contact stiffness OPSF will be used.
 Default tangent stiffness factor FKT          1.0000    
 Use constant contact stiffness
 Default Max. friction stress TAUMAX          0.10000E+21
 Average contact surface length               0.26871E-06
 Average contact pair depth                   0.11449E-06
 Default pinball region factor PINB           0.25000    
 The resulting pinball region                 0.28623E-07
 Initial penetration/gap is excluded.
 Bonded contact (always) is defined.

 *** NOTE ***                            CP =       1.266   TIME= 07:23:37
 Max.  Initial penetration 3.97046694E-23 was detected between contact   
 element 9241 and target element 9293.                                   
 ****************************************
  

 *** NOTE ***                            CP =       1.266   TIME= 07:23:37
 Symmetric Deformable- deformable contact pair identified by real        
 constant set 28 and contact element type 27 has been set up.  The       
 companion pair has real constant set ID 27.  Both pairs should have     
 the same behavior.                                                      
 ANSYS will deactivate the current pair and keep its companion pair,     
 resulting in asymmetric contact.                                        
 Linear contact is defined
 Contact algorithm: Augmented Lagrange method
 Contact detection at: Gauss integration point
 Contact stiffness factor FKN                  1.0000    
 The resulting initial contact stiffness      0.25329E+20
 Default penetration tolerance factor FTOLN   0.10000    
 The resulting penetration tolerance          0.18000E-07
 Default opening contact stiffness OPSF will be used.
 Default tangent stiffness factor FKT          1.0000    
 Use constant contact stiffness
 Default Max. friction stress TAUMAX          0.10000E+21
 Average contact surface length               0.60000E-06
 Average contact pair depth                   0.18000E-06
 Default pinball region factor PINB           0.25000    
 The resulting pinball region                 0.45000E-07
 Initial penetration/gap is excluded.
 Bonded contact (always) is defined.

 *** NOTE ***                            CP =       1.266   TIME= 07:23:37
 Max.  Initial penetration 1.32348898E-23 was detected between contact   
 element 9274 and target element 9237.                                   
 ****************************************
  


                         ***********  PRECISE MASS SUMMARY  ***********

   TOTAL RIGID BODY MASS MATRIX ABOUT ORIGIN
               Translational mass               |   Coupled translational/rotational mass
        0.81220E-13    0.0000        0.0000     |     0.0000      -0.93885E-20  -0.67708E-35
         0.0000       0.81220E-13    0.0000     |    0.93885E-20    0.0000      -0.52813E-26
         0.0000        0.0000       0.81220E-13 |    0.11661E-34   0.52813E-26    0.0000    
[...]
        2        51  SOLID186      0.031   0.000613
        3        51  SOLID186      0.016   0.000306
        4        51  SOLID186      0.000   0.000000
        5        51  SOLID186      0.000   0.000000
        6       185  SOLID187      0.016   0.000084
        7       188  SOLID187      0.031   0.000166
        8       209  SOLID187      0.031   0.000150
        9       183  SOLID187      0.016   0.000085
       10       100  SOLID186      0.031   0.000313
       11        61  CONTA174      0.016   0.000256
       12        61  TARGE170      0.000   0.000000
       13        58  CONTA174      0.016   0.000269
       14        58  TARGE170      0.000   0.000000
       15        61  CONTA174      0.031   0.000512
       16        61  TARGE170      0.000   0.000000
       17        58  CONTA174      0.000   0.000000
       18        58  TARGE170      0.000   0.000000
       19        92  CONTA174      0.000   0.000000
       20        92  TARGE170      0.000   0.000000
       21        88  CONTA174      0.000   0.000000
       22        88  TARGE170      0.000   0.000000
       23       100  CONTA174      0.000   0.000000
       24       100  TARGE170      0.000   0.000000
       25        93  CONTA174      0.016   0.000168
       26        93  TARGE170      0.000   0.000000
       27        40  CONTA174      0.000   0.000000
       28        40  TARGE170      0.000   0.000000
       29      1192  CONTA174      0.188   0.000157
       30      1192  TARGE170      0.031   0.000026
 Time at end of element matrix formulation CP = 1.765625.                

  BLOCK LANCZOS CALCULATION OF UP TO     6 EIGENVECTORS.
  NUMBER OF EQUATIONS              =        32217
  MAXIMUM WAVEFRONT                =          606
  MAXIMUM MODES STORED             =            6
  MINIMUM EIGENVALUE               =  0.00000E+00
  MAXIMUM EIGENVALUE               =  0.10000E+31


  Local memory allocated for solver              =     52.362 MB
  Local memory required for in-core solution     =     49.937 MB
  Local memory required for out-of-core solution =     21.260 MB

  Total memory allocated for solver              =    103.863 MB
  Total memory required for in-core solution     =     99.053 MB
  Total memory required for out-of-core solution =     42.261 MB

 *** NOTE ***                            CP =       3.281   TIME= 07:23:40
 The Distributed Sparse Matrix Solver used by the Block Lanczos          
 eigensolver is currently running in the in-core memory mode.  This      
 memory mode uses the most amount of memory in order to avoid using the  
 hard drive as much as possible, which most often results in the         
 fastest solution time.  This mode is recommended if enough physical     
 memory is present to accommodate all of the solver data.                

 *** ANSYS - ENGINEERING ANALYSIS SYSTEM  RELEASE 2020 R1          20.1     ***
 DISTRIBUTED ANSYS Mechanical Enterprise                       

 20120530  VERSION=WINDOWS x64   07:23:41  APR 08, 2020 CP=      4.172

 relay--Modal (C5)                                                             



 *** FREQUENCIES FROM BLOCK LANCZOS ITERATION ***

  MODE    FREQUENCY (HERTZ)      


    1     7735083.323914    
    2     12654079.73201    
    3     12667840.98721    
    4     59601846.65580    
    5     59773383.40624    
    6     60151915.89282    

 *** ANSYS - ENGINEERING ANALYSIS SYSTEM  RELEASE 2020 R1          20.1     ***
 DISTRIBUTED ANSYS Mechanical Enterprise                       

 20120530  VERSION=WINDOWS x64   07:23:42  APR 08, 2020 CP=      4.219

 relay--Modal (C5)                                                             





          ***** PARTICIPATION FACTOR CALCULATION *****  X  DIRECTION
                                                                                  CUMULATIVE     RATIO EFF.MASS
  MODE   FREQUENCY       PERIOD      PARTIC.FACTOR     RATIO    EFFECTIVE MASS   MASS FRACTION   TO TOTAL MASS
     1    0.773508E+07   0.12928E-06   0.41158E-10    0.000435    0.169394E-20    0.188338E-06    0.208563E-07
     2    0.126541E+08   0.79026E-07  -0.72096E-09    0.007628    0.519786E-18    0.579799E-04    0.639976E-05
     3    0.126678E+08   0.78940E-07   0.83148E-09    0.008797    0.691366E-18    0.134848E-03    0.851231E-05
     4    0.596018E+08   0.16778E-07   0.94519E-07    1.000000    0.893386E-14    0.993430        0.109996    
     5    0.597734E+08   0.16730E-07  -0.57663E-08    0.061006    0.332497E-16    0.997127        0.409380E-03
     6    0.601519E+08   0.16625E-07   0.50837E-08    0.053784    0.258435E-16     1.00000        0.318193E-03
 -----------------------------------------------------------------------------------------------------------------
   sum                                                            0.899416E-14                    0.110739    
 -----------------------------------------------------------------------------------------------------------------



          ***** PARTICIPATION FACTOR CALCULATION *****  Y  DIRECTION
                                                                                  CUMULATIVE     RATIO EFF.MASS
  MODE   FREQUENCY       PERIOD      PARTIC.FACTOR     RATIO    EFFECTIVE MASS   MASS FRACTION   TO TOTAL MASS
     1    0.773508E+07   0.12928E-06  -0.13717E-11    0.000014    0.188161E-23    0.209085E-09    0.231669E-10
     2    0.126541E+08   0.79026E-07  -0.84701E-09    0.008946    0.717426E-18    0.797210E-04    0.883316E-05
     3    0.126678E+08   0.78940E-07  -0.70059E-09    0.007399    0.490831E-18    0.134262E-03    0.604325E-05
     4    0.596018E+08   0.16778E-07   0.57415E-08    0.060640    0.329651E-16    0.379737E-02    0.405876E-03
     5    0.597734E+08   0.16730E-07   0.94683E-07    1.000000    0.896482E-14    0.999974        0.110378    
     6    0.601519E+08   0.16625E-07   0.48541E-09    0.005127    0.235623E-18     1.00000        0.290106E-05
 -----------------------------------------------------------------------------------------------------------------
   sum                                                            0.899923E-14                    0.110801    
 -----------------------------------------------------------------------------------------------------------------



          ***** PARTICIPATION FACTOR CALCULATION *****  Z  DIRECTION
                                                                                  CUMULATIVE     RATIO EFF.MASS
  MODE   FREQUENCY       PERIOD      PARTIC.FACTOR     RATIO    EFFECTIVE MASS   MASS FRACTION   TO TOTAL MASS
     1    0.773508E+07   0.12928E-06   0.97598E-07    1.000000    0.952541E-14    0.999998        0.117280    
     2    0.126541E+08   0.79026E-07  -0.93540E-11    0.000096    0.874981E-22    0.999998        0.107730E-08
     3    0.126678E+08   0.78940E-07   0.88013E-10    0.000902    0.774636E-20    0.999999        0.953755E-07
     4    0.596018E+08   0.16778E-07  -0.92149E-10    0.000944    0.849149E-20     1.00000        0.104550E-06
     5    0.597734E+08   0.16730E-07   0.17231E-11    0.000018    0.296898E-23     1.00000        0.365549E-10
     6    0.601519E+08   0.16625E-07   0.20827E-10    0.000213    0.433749E-21     1.00000        0.534045E-08
 -----------------------------------------------------------------------------------------------------------------
   sum                                                            0.952543E-14                    0.117280    
 -----------------------------------------------------------------------------------------------------------------



          ***** PARTICIPATION FACTOR CALCULATION *****ROTX DIRECTION
                                                                                  CUMULATIVE     RATIO EFF.MASS
  MODE   FREQUENCY       PERIOD      PARTIC.FACTOR     RATIO    EFFECTIVE MASS   MASS FRACTION   TO TOTAL MASS
     1    0.773508E+07   0.12928E-06    0.0000        0.000000     0.00000         0.00000         0.00000    
     2    0.126541E+08   0.79026E-07  -0.80842E-13    1.000000    0.653550E-26    0.718457        0.287991E-01
     3    0.126678E+08   0.78940E-07  -0.49763E-13    0.615561    0.247640E-26    0.990691        0.109124E-01
     4    0.596018E+08   0.16778E-07    0.0000        0.000000     0.00000        0.990691         0.00000    
     5    0.597734E+08   0.16730E-07  -0.92011E-14    0.113815    0.846602E-28    0.999998        0.373061E-03
     6    0.601519E+08   0.16625E-07    0.0000        0.000000     0.00000        0.999998         0.00000    
 -----------------------------------------------------------------------------------------------------------------
   sum                                                            0.909658E-26                    0.400847E-01
 -----------------------------------------------------------------------------------------------------------------



          ***** PARTICIPATION FACTOR CALCULATION *****ROTY DIRECTION
                                                                                  CUMULATIVE     RATIO EFF.MASS
  MODE   FREQUENCY       PERIOD      PARTIC.FACTOR     RATIO    EFFECTIVE MASS   MASS FRACTION   TO TOTAL MASS
     1    0.773508E+07   0.12928E-06    0.0000        0.000000     0.00000         0.00000         0.00000    
     2    0.126541E+08   0.79026E-07   0.49758E-13    0.615400    0.247588E-26    0.272130        0.109101E-01
     3    0.126678E+08   0.78940E-07  -0.80855E-13    1.000000    0.653753E-26    0.990686        0.288081E-01
     4    0.596018E+08   0.16778E-07   0.91914E-14    0.113677    0.844812E-28    0.999971        0.372272E-03
     5    0.597734E+08   0.16730E-07    0.0000        0.000000     0.00000        0.999971         0.00000    
     6    0.601519E+08   0.16625E-07    0.0000        0.000000     0.00000        0.999971         0.00000    
 -----------------------------------------------------------------------------------------------------------------
   sum                                                            0.909815E-26                    0.400916E-01
 -----------------------------------------------------------------------------------------------------------------



          ***** PARTICIPATION FACTOR CALCULATION *****ROTZ DIRECTION
                                                                                  CUMULATIVE     RATIO EFF.MASS
  MODE   FREQUENCY       PERIOD      PARTIC.FACTOR     RATIO    EFFECTIVE MASS   MASS FRACTION   TO TOTAL MASS
     1    0.773508E+07   0.12928E-06    0.0000        0.000000     0.00000         0.00000         0.00000    
     2    0.126541E+08   0.79026E-07    0.0000        0.000000     0.00000         0.00000         0.00000    
     3    0.126678E+08   0.78940E-07    0.0000        0.000000     0.00000         0.00000         0.00000    
     4    0.596018E+08   0.16778E-07    0.0000        0.000000     0.00000         0.00000         0.00000    
     5    0.597734E+08   0.16730E-07    0.0000        0.000000     0.00000         0.00000         0.00000    
     6    0.601519E+08   0.16625E-07    0.0000        0.000000     0.00000         0.00000         0.00000    





 *** NOTE ***                            CP =       4.219   TIME= 07:23:42
 The modes requested are mass normalized (Nrmkey on MODOPT).  However,   
 the modal masses and kinetic energies below are calculated with unit    
 normalized modes.                                                       

        ***** MODAL MASSES, KINETIC ENERGIES, AND TRANSLATIONAL EFFECTIVE MASSES SUMMARY *****

                                                                         EFFECTIVE MASS
  MODE  FREQUENCY   MODAL MASS     KENE      |      X-DIR      RATIO%   Y-DIR      RATIO%   Z-DIR      RATIO% 
     1  0.7735E+07  0.8618E-14   10.18       |    0.1694E-20    0.00  0.1882E-23    0.00  0.9525E-14   11.73
     2  0.1265E+08  0.1695E-14   5.356       |    0.5198E-18    0.00  0.7174E-18    0.00  0.8750E-22    0.00
     3  0.1267E+08  0.1694E-14   5.365       |    0.6914E-18    0.00  0.4908E-18    0.00  0.7746E-20    0.00
     4  0.5960E+08  0.8550E-14   599.5       |    0.8934E-14   11.00  0.3297E-16    0.04  0.8491E-20    0.00
     5  0.5977E+08  0.8701E-14   613.6       |    0.3325E-16    0.04  0.8965E-14   11.04  0.2969E-23    0.00
     6  0.6015E+08  0.1501E-14   107.2       |    0.2584E-16    0.03  0.2356E-18    0.00  0.4337E-21    0.00
 --------------------------------------------------------------------------------------------------------------
   sum                                       |    0.8994E-14   11.07  0.8999E-14   11.08  0.9525E-14   11.73
 --------------------------------------------------------------------------------------------------------------


 *** ANSYS BINARY FILE STATISTICS
  BUFFER SIZE USED= 16384
        5.750 MB WRITTEN ON ELEMENT SAVED DATA FILE: file0.esav
       11.000 MB WRITTEN ON ASSEMBLED MATRIX FILE: file0.full
        1.250 MB WRITTEN ON MODAL MATRIX FILE: file0.mode
        2.250 MB WRITTEN ON RESULTS FILE: file0.rst
 *************** Write FE CONNECTORS *********

 WRITE OUT CONSTRAINT EQUATIONS TO FILE= file.ce                                                                                                                                                                                                                                                             

 *GET  _NMODALSOLPROC  FROM  ACTI  ITEM=NUMC       VALUE=  2.00000000    

 FINISH SOLUTION PROCESSING


 ***** ROUTINE COMPLETED *****  CP =         4.406



 PRINTOUT RESUMED BY /GOP

 *GET  _WALLASOL  FROM  ACTI  ITEM=TIME WALL  VALUE=  7.39500000    

 *** ANSYS - ENGINEERING ANALYSIS SYSTEM  RELEASE 2020 R1          20.1     ***
 DISTRIBUTED ANSYS Mechanical Enterprise                       

 20120530  VERSION=WINDOWS x64   07:23:42  APR 08, 2020 CP=      4.406

 relay--Modal (C5)                                                             



          ***** ANSYS RESULTS INTERPRETATION (POST1) *****

 *** NOTE ***                            CP =       4.406   TIME= 07:23:42
 Reading results into the database (SET command) will update the current 
 displacement and force boundary conditions in the database with the     
 values from the results file for that load set.  Note that any          
 subsequent solutions will use these values unless action is taken to    
 either SAVE the current values or not overwrite them (/EXIT,NOSAVE).    

 PRINTOUT RESUMED BY /GOP

 Set Encoding of XML File to:ISO-8859-1

 Set Output of XML File to:
     PARM,     ,     ,     ,     ,     ,     ,     ,     ,     ,     ,     ,
         ,     ,     ,     ,     ,     ,     ,

 DATABASE WRITTEN ON FILE  parm.xml                                                                                                                                                                                                                                                            

 EXIT THE ANSYS POST1 DATABASE PROCESSOR


 ***** ROUTINE COMPLETED *****  CP =         4.422



 PRINTOUT RESUMED BY /GOP

 *GET  _WALLDONE  FROM  ACTI  ITEM=TIME WALL  VALUE=  7.39500000    

 PARAMETER _PREPTIME =     0.000000000    

 PARAMETER _SOLVTIME =     5.000000000    

 PARAMETER _POSTTIME =     0.000000000    

 PARAMETER _TOTALTIM =     5.000000000    

 *GET  _DLBRATIO  FROM  ACTI  ITEM=SOLU DLBR  VALUE=  1.09228863    

 *GET  _COMBTIME  FROM  ACTI  ITEM=SOLU COMB  VALUE= 0.147007400    
 --- Number of total nodes = 11080
 --- Number of total elements = 8117
 --- Element load balance ratio = 1.09228863
 --- Time to combine distributed files = 0.1470074

 EXIT ANSYS WITHOUT SAVING DATABASE


 NUMBER OF WARNING MESSAGES ENCOUNTERED=          3
 NUMBER OF ERROR   MESSAGES ENCOUNTERED=          0

+--------- D I S T R I B U T E D   A N S Y S   S T A T I S T I C S ------------+

Release: 2020 R1            Build: 20.1       Update: UP20191203   Platform: WINDOWS x64 
Date Run: 04/08/2020   Time: 07:23     Process ID: 2188
Operating System: Windows 10  (Build: 18363)

Processor Model: Intel(R) Core(TM) i5-6360U CPU @ 2.00GHz

Compiler: Intel(R) FORTRAN Compiler Version 19.0.0  (Build: 20190206)
          Intel(R) C/C++ Compiler Version 19.0.0  (Build: 20190206)
          Intel(R) Math Kernel Library Version 2019.0.3 Product Build 20190125

Number of machines requested            :    1
Total number of cores available         :    2
Number of physical cores available      :    2
Number of processes requested           :    2
Number of threads per process requested :    1
Total number of cores requested         :    2 (Distributed Memory Parallel)               
MPI Type: INTELMPI
MPI Version: Intel(R) MPI Library 2018 Update 3 for Windows* OS


GPU Acceleration: Not Requested

Job Name: file0
Input File: dummy.dat

  Core                Machine Name   Working Directory
 -----------------------------------------------------
     0             DESKTOP-H2RNGL6   C:\Users\Akash Levy\Documents\NEM-Relay-CAD\ansys\_ProjectScratch\Scr7EDF
     1             DESKTOP-H2RNGL6   C:\Users\Akash Levy\Documents\NEM-Relay-CAD\ansys\_ProjectScratch\Scr7EDF
 
Latency time from master to core     1 =   52.809 microseconds
 
Communication speed from master to core     1 =  1587.93 MB/sec

Total CPU time for main thread                    :        4.3 seconds
Total CPU time summed for all threads             :        4.4 seconds

Elapsed time spent obtaining a license            :        1.1 seconds
Elapsed time spent pre-processing model (/PREP7)  :        0.1 seconds
Elapsed time spent solution - preprocessing       :        0.4 seconds
Elapsed time spent computing solution             :        4.4 seconds
Elapsed time spent solution - postprocessing      :        0.1 seconds
Elapsed time spent post-processing model (/POST1) :        0.0 seconds
 
Eigensolver used                                  :            Block Lanczos
Equation solver computational rate                :        8.0 Gflops
Equation solver effective I/O rate                :        2.4 GB/sec

Maximum total memory used                         :      380.0 MB
Maximum total memory allocated                    :     3136.0 MB
Total physical memory available                   :          4 GB

Total amount of I/O written to disk               :        0.1 GB
Total amount of I/O read from disk                :        0.0 GB

+------ E N D   D I S T R I B U T E D   A N S Y S   S T A T I S T I C S -------+


 *---------------------------------------------------------------------------*
 |                                                                           |
 |                       DISTRIBUTED ANSYS RUN COMPLETED                     |
 |                                                                           |
 |---------------------------------------------------------------------------|
 |                                                                           |
 | Ansys 2020 R1               Build 20.1         UP20191203     WINDOWS x64 |
 |                                                                           |
 |---------------------------------------------------------------------------|
 |                                                                           |
 | Database Requested(-db)  1024 MB    Scratch Memory Requested      1024 MB |
 | Maximum Database Used      11 MB    Maximum Scratch Memory Used    189 MB |
 |                                                                           |
 |---------------------------------------------------------------------------|
 |                                                                           |
 |        CP Time      (sec) =          4.438       Time  =  07:23:42        |
 |        Elapsed Time (sec) =          8.000       Date  =  04/08/2020      |
 |                                                                           |
 *---------------------------------------------------------------------------*
