
 ANSYS Mechanical Enterprise                       


 *------------------------------------------------------------------*
 |                                                                  |
 |   W E L C O M E   T O   T H E   A N S Y S (R)  P R O G R A M     |
 |                                                                  |
 *------------------------------------------------------------------*




 ***************************************************************
 *            ANSYS 2020 R1          LEGAL NOTICES             *
 ***************************************************************
 *                                                             *
 * Copyright 1971-2020 ANSYS, Inc.  All rights reserved.       *
 * Unauthorized use, distribution or duplication is            *
 * prohibited.                                                 *
 *                                                             *
 * Ansys is a registered trademark of ANSYS, Inc. or its       *
 * subsidiaries in the United States or other countries.       *
 * See the ANSYS, Inc. online documentation or the ANSYS, Inc. *
 * documentation CD or online help for the complete Legal      *
 * Notice.                                                     *
 *                                                             *
 ***************************************************************
 *                                                             *
 * THIS ANSYS SOFTWARE PRODUCT AND PROGRAM DOCUMENTATION       *
 * INCLUDE TRADE SECRETS AND CONFIDENTIAL AND PROPRIETARY      *
 * PRODUCTS OF ANSYS, INC., ITS SUBSIDIARIES, OR LICENSORS.    *
 * The software products and documentation are furnished by    *
 * ANSYS, Inc. or its subsidiaries under a software license    *
 * agreement that contains provisions concerning               *
 * non-disclosure, copying, length and nature of use,          *
 * compliance with exporting laws, warranties, disclaimers,    *
 * limitations of liability, and remedies, and other           *
 * provisions.  The software products and documentation may be *
 * used, disclosed, transferred, or copied only in accordance  *
 * with the terms and conditions of that software license      *
 * agreement.                                                  *
 *                                                             *
 * ANSYS, Inc. is a UL registered                              *
 * ISO 9001:2015 company.                                      *
 *                                                             *
 ***************************************************************
 *                                                             *
 * This product is subject to U.S. laws governing export and   *
 * re-export.                                                  *
 *                                                             *
 * For U.S. Government users, except as specifically granted   *
 * by the ANSYS, Inc. software license agreement, the use,     *
 * duplication, or disclosure by the United States Government  *
 * is subject to restrictions stated in the ANSYS, Inc.        *
 * software license agreement and FAR 12.212 (for non-DOD      *
 * licenses).                                                  *
 *                                                             *
 ***************************************************************

 2020 R1 
     
 Point Releases and Patches installed:   
     
 ANSYS, Inc. Products 2020 R1
 SpaceClaim 2020 R1  
 AIM 2020 R1 
 Live (includes SpaceClaim) 2020 R1  
 Autodyn 2020 R1 
 LS-DYNA 2020 R1 
 CFX (includes CFD-Post) 2020 R1 
 Chemkin 2020 R1 
 EnSight 2020 R1 
 FENSAP-ICE 2020 R1  
 Fluent (includes CFD-Post) 2020 R1  
 Forte 2020 R1   
 Polyflow (includes CFD-Post) 2020 R1
 TurboGrid 2020 R1   
 ICEM CFD 2020 R1
 Aqwa 2020 R1
 Customization Files for User Programmable Features 2020 R1  
 Mechanical Products 2020 R1 
 Additive 2020 R1
 ANSYS Sherlock 2020 R1  
 Icepak (includes CFD-Post) 2020 R1  
 ACIS Geometry Interface 2020 R1 
 AutoCAD Geometry Interface 2020 R1  
 Catia, Version 4 Geometry Interface 2020 R1 
 Catia, Version 5 Geometry Interface 2020 R1 
 Catia, Version 6 Geometry Interface 2020 R1 
 Creo Elements/Direct Modeling Geometry Interface 2020 R1
 Creo Parametric Geometry Interface 2020 R1  
 Inventor Geometry Interface 2020 R1 
 JTOpen Geometry Interface 2020 R1   
 NX Geometry Interface 2020 R1   
 Parasolid Geometry Interface  2020 R1   
 Solid Edge Geometry Interface 2020 R1   
 SOLIDWORKS Geometry Interface 2020 R1   
 ANSYS, Inc. License Manager 2020 R1 


          *****  ANSYS COMMAND LINE ARGUMENTS  *****
  BATCH MODE REQUESTED (-b)    = NOLIST
  INPUT FILE COPY MODE (-c)    = COPY
  DISTRIBUTED MEMORY PARALLEL REQUESTED
       2 PARALLEL PROCESSES REQUESTED WITH SINGLE THREAD PER PROCESS
    TOTAL OF     2 CORES REQUESTED
  INPUT FILE NAME              = C:\Users\Akash Levy\Documents\NEM-Relay-CAD\ansys\_ProjectScratch\Scr5559\dummy.dat
  OUTPUT FILE NAME             = C:\Users\Akash Levy\Documents\NEM-Relay-CAD\ansys\_ProjectScratch\Scr5559\solve.out
  START-UP FILE MODE           = NOREAD
  STOP FILE MODE               = NOREAD

 RELEASE= 2020 R1              BUILD= 20.1      UP20191203   VERSION=WINDOWS x64 
 CURRENT JOBNAME=file0  07:12:09  APR 16, 2020 CP=      0.609


 PARAMETER _DS_PROGRESS =     999.0000000    

 /INPUT FILE= ds.dat  LINE=       0



 *** NOTE ***                            CP =       0.875   TIME= 07:12:09
 The /CONFIG,NOELDB command is not valid in a Distributed ANSYS          
 solution.  Command is ignored.                                          

 *GET  _WALLSTRT  FROM  ACTI  ITEM=TIME WALL  VALUE=  7.20250000    

 TITLE= 
 relay--Modal (C5)                                                             


 SET PARAMETER DIMENSIONS ON  _WB_PROJECTSCRATCH_DIR
  TYPE=STRI  DIMENSIONS=      248        1        1

 PARAMETER _WB_PROJECTSCRATCH_DIR(1) = C:\Users\Akash Levy\Documents\NEM-Relay-CAD\ansys\_ProjectScratch\Scr5559\

 SET PARAMETER DIMENSIONS ON  _WB_SOLVERFILES_DIR
  TYPE=STRI  DIMENSIONS=      248        1        1

 PARAMETER _WB_SOLVERFILES_DIR(1) = C:\Users\Akash Levy\Documents\NEM-Relay-CAD\ansys\relay_files\dp0\SYS-12\MECH\

 SET PARAMETER DIMENSIONS ON  _WB_USERFILES_DIR
  TYPE=STRI  DIMENSIONS=      248        1        1

 PARAMETER _WB_USERFILES_DIR(1) = C:\Users\Akash Levy\Documents\NEM-Relay-CAD\ansys\relay_files\user_files\
 --- Data in consistent MKS units. See Solving Units in the help system for more

 MKS UNITS SPECIFIED FOR INTERNAL    
  LENGTH        (l)  = METER (M)
  MASS          (M)  = KILOGRAM (KG)
  TIME          (t)  = SECOND (SEC)
  TEMPERATURE   (T)  = CELSIUS (C)
  TOFFSET            = 273.0
  CHARGE        (Q)  = COULOMB
  FORCE         (f)  = NEWTON (N) (KG-M/SEC2)
  HEAT               = JOULE (N-M)

  PRESSURE           = PASCAL (NEWTON/M**2)
  ENERGY        (W)  = JOULE (N-M)
  POWER         (P)  = WATT (N-M/SEC)
  CURRENT       (i)  = AMPERE (COULOMBS/SEC)
  CAPACITANCE   (C)  = FARAD
  INDUCTANCE    (L)  = HENRY
  MAGNETIC FLUX      = WEBER
  RESISTANCE    (R)  = OHM
  ELECTRIC POTENTIAL = VOLT

 INPUT  UNITS ARE ALSO SET TO MKS 

 *** ANSYS - ENGINEERING ANALYSIS SYSTEM  RELEASE 2020 R1          20.1     ***
 DISTRIBUTED ANSYS Mechanical Enterprise                       

 20120530  VERSION=WINDOWS x64   07:12:09  APR 16, 2020 CP=      0.875

 relay--Modal (C5)                                                             



          ***** ANSYS ANALYSIS DEFINITION (PREP7) *****
 *********** Nodes for the whole assembly ***********
 *********** Elements for Body 1 "Relay Main Body" ***********
 *********** Elements for Body 2 "Contact 1" ***********
 *********** Elements for Body 3 "Contact 2" ***********
 *********** Elements for Body 4 "Contact 3" ***********
 *********** Elements for Body 5 "Contact 4" ***********
 *********** Elements for Body 6 "Contact 5" ***********
 *********** Elements for Body 7 "Contact 6" ***********
 *********** Elements for Body 8 "Contact 7" ***********
 *********** Elements for Body 9 "Contact 8" ***********
 *********** Elements for Body 10 "Anchor 1" ***********
 *********** Elements for Body 11 "Anchor 2" ***********
 *********** Elements for Body 12 "Anchor 3" ***********
 *********** Elements for Body 13 "Anchor 4" ***********
 *********** Elements for Body 14 "Dielectric" ***********
 *********** Elements for Body 15 "Substrate" ***********
 *********** Send User Defined Coordinate System(s) ***********
 *********** Set Reference Temperature ***********
 *********** Send Materials ***********
 *********** Create Contact "Contact Region 16" ***********
             Real Constant Set For Above Contact Is 17 & 16
 *********** Create Contact "Contact Region 17" ***********
             Real Constant Set For Above Contact Is 19 & 18
 *********** Create Contact "Contact Region 18" ***********
             Real Constant Set For Above Contact Is 21 & 20
 *********** Create Contact "Contact Region 19" ***********
             Real Constant Set For Above Contact Is 23 & 22
 *********** Create Contact "Contact Region 20" ***********
             Real Constant Set For Above Contact Is 25 & 24
 *********** Create Contact "Contact Region 21" ***********
             Real Constant Set For Above Contact Is 27 & 26
 *********** Create Contact "Contact Region 22" ***********
             Real Constant Set For Above Contact Is 29 & 28
 *********** Create Contact "Contact Region 23" ***********
             Real Constant Set For Above Contact Is 31 & 30
 *********** Create Contact "Contact Region 24" ***********
             Real Constant Set For Above Contact Is 33 & 32
 *********** Create Contact "Contact Region 25" ***********
             Real Constant Set For Above Contact Is 35 & 34
 *********** Create Contact "Contact Region 26" ***********
             Real Constant Set For Above Contact Is 37 & 36
 *********** Create Contact "Contact Region 27" ***********
             Real Constant Set For Above Contact Is 39 & 38
 *********** Create Contact "Contact Region 28" ***********
             Real Constant Set For Above Contact Is 41 & 40
 *********** Create Contact "Contact Region 29" ***********
             Real Constant Set For Above Contact Is 43 & 42
 *********** Create Contact "Contact Region 30" ***********
             Real Constant Set For Above Contact Is 45 & 44
 *********** Create Contact "Contact Region 31" ***********
             Real Constant Set For Above Contact Is 47 & 46
 *********** Create Contact "Contact Region 32" ***********
             Real Constant Set For Above Contact Is 49 & 48
 *********** Create Contact "Frictionless - Dielectric To Substrate" ***********
             Real Constant Set For Above Contact Is 51 & 50
 *********** Create Contact "Frictionless - Contact 5 To Substrate" ***********
             Real Constant Set For Above Contact Is 53 & 52
 *********** Create Contact "Frictionless - Contact 5 To Substrate" ***********
             Real Constant Set For Above Contact Is 55 & 54
 *********** Create Contact "Frictionless - Contact 4 To Substrate" ***********
             Real Constant Set For Above Contact Is 57 & 56
 *********** Create Contact "Frictionless - Contact 4 To Substrate" ***********
             Real Constant Set For Above Contact Is 59 & 58
 *********** Create Contact "Frictionless - Contact 7 To Substrate" ***********
             Real Constant Set For Above Contact Is 61 & 60
 *********** Create Contact "Frictionless - Contact 7 To Substrate" ***********
             Real Constant Set For Above Contact Is 63 & 62
 *********** Create Contact "Frictionless - Contact 7 To Substrate 3" **********
             Real Constant Set For Above Contact Is 65 & 64
 *********** Create Contact "Frictionless - Contact 3 To Substrate" ***********
             Real Constant Set For Above Contact Is 67 & 66
 *********** Create Contact "Frictionless - Contact 3 To Substrate" ***********
             Real Constant Set For Above Contact Is 69 & 68
 *********** Create Contact "Frictionless - Contact 6 To Substrate" ***********
             Real Constant Set For Above Contact Is 71 & 70
 *********** Create Contact "Frictionless - Contact 6 To Substrate" ***********
             Real Constant Set For Above Contact Is 73 & 72
 *********** Create Contact "Frictionless - Contact 2 To Substrate" ***********
             Real Constant Set For Above Contact Is 75 & 74
 *********** Create Contact "Frictionless - Contact 2 To Substrate" ***********
             Real Constant Set For Above Contact Is 77 & 76
 *********** Create Contact "Frictionless - Contact 8 To Substrate" ***********
             Real Constant Set For Above Contact Is 79 & 78
 *********** Create Contact "Frictionless - Contact 8 To Substrate" ***********
             Real Constant Set For Above Contact Is 81 & 80
 *********** Send Named Selection as Node Component ***********
 *********** Fixed Supports ***********


 ***** ROUTINE COMPLETED *****  CP =         1.141


 --- Number of total nodes = 20124
 --- Number of contact elements = 13642
 --- Number of spring elements = 0
 --- Number of bearing elements = 0
 --- Number of solid elements = 7689
 --- Number of condensed parts = 0
 --- Number of total elements = 21331

 *GET  _WALLBSOL  FROM  ACTI  ITEM=TIME WALL  VALUE=  7.20277778    

 *****  ANSYS SOLUTION ROUTINE  *****


 PERFORM A MODAL ANALYSIS
  THIS WILL BE A NEW ANALYSIS

 PARAMETER _THICKRATIO =     0.000000000    


 USE SYM. BLOCK LANCZOS MODE EXTRACTION METHOD
  EXTRACT     6 MODES
  NORMALIZE THE MODE SHAPES TO THE MASS MATRIX

 ERASE THE CURRENT DATABASE OUTPUT CONTROL TABLE.


 WRITE ALL  ITEMS TO THE DATABASE WITH A FREQUENCY OF NONE
   FOR ALL APPLICABLE ENTITIES

 WRITE NSOL ITEMS TO THE DATABASE WITH A FREQUENCY OF ALL 
   FOR ALL APPLICABLE ENTITIES

 WRITE ETMP ITEMS TO THE DATABASE WITH A FREQUENCY OF ALL 
   FOR ALL APPLICABLE ENTITIES


 EXPAND ALL EXTRACTED MODES
  DO NOT CALCULATE ELEMENT RESULTS

 DO NOT COMBINE ELEMENT SAVE DATA FILES (.esav) AFTER DISTRIBUTED PARALLEL SOLUTION

 DO NOT COMBINE ELEMENT MATRIX FILES (.emat) AFTER DISTRIBUTED PARALLEL SOLUTION

 DO NOT COMBINE ASSEMBLED MATRIX FILES (.full) AFTER DISTRIBUTED PARALLEL SOLUTION

 *GET  ANSINTER_  FROM  ACTI  ITEM=INT        VALUE=  0.00000000    

 *IF  ANSINTER_                         ( =   0.00000     )  NE  
      0                                 ( =   0.00000     )  THEN    

 *ENDIF

 *** NOTE ***                            CP =       1.156   TIME= 07:12:10
 The automatic domain decomposition logic has selected the MESH domain   
 decomposition method with 2 processes per solution.                     

 *****  ANSYS SOLVE    COMMAND  *****

 *** WARNING ***                         CP =       1.188   TIME= 07:12:10
 Element shape checking is currently inactive.  Issue SHPP,ON or         
 SHPP,WARN to reactivate, if desired.                                    

 *** NOTE ***                            CP =       1.219   TIME= 07:12:10
 The model data was checked and warning messages were found.             
  Please review output or errors file ( C:\Users\Akash                   
 Levy\Documents\NEM-Relay-CAD\ansys\_ProjectScratch\Scr5559\file0.err )  
 for these warning messages.                                             

 *** SELECTION OF ELEMENT TECHNOLOGIES FOR APPLICABLE ELEMENTS ***
      --- GIVE SUGGESTIONS AND RESET THE KEY OPTIONS ---

 ELEMENT TYPE    1 IS SOLID187. IT IS NOT ASSOCIATED WITH FULLY INCOMPRESSIBLE
 HYPERELASTIC MATERIALS. NO SUGGESTION IS AVAILABLE AND NO RESETTING IS NEEDED.

 ELEMENT TYPE    2 IS SOLID187. IT IS NOT ASSOCIATED WITH FULLY INCOMPRESSIBLE
 HYPERELASTIC MATERIALS. NO SUGGESTION IS AVAILABLE AND NO RESETTING IS NEEDED.

 ELEMENT TYPE    3 IS SOLID187. IT IS NOT ASSOCIATED WITH FULLY INCOMPRESSIBLE
 HYPERELASTIC MATERIALS. NO SUGGESTION IS AVAILABLE AND NO RESETTING IS NEEDED.

 ELEMENT TYPE    4 IS SOLID187. IT IS NOT ASSOCIATED WITH FULLY INCOMPRESSIBLE
 HYPERELASTIC MATERIALS. NO SUGGESTION IS AVAILABLE AND NO RESETTING IS NEEDED.

 ELEMENT TYPE    5 IS SOLID187. IT IS NOT ASSOCIATED WITH FULLY INCOMPRESSIBLE
 HYPERELASTIC MATERIALS. NO SUGGESTION IS AVAILABLE AND NO RESETTING IS NEEDED.

 ELEMENT TYPE    6 IS SOLID187. IT IS NOT ASSOCIATED WITH FULLY INCOMPRESSIBLE
 HYPERELASTIC MATERIALS. NO SUGGESTION IS AVAILABLE AND NO RESETTING IS NEEDED.

 ELEMENT TYPE    7 IS SOLID187. IT IS NOT ASSOCIATED WITH FULLY INCOMPRESSIBLE
 HYPERELASTIC MATERIALS. NO SUGGESTION IS AVAILABLE AND NO RESETTING IS NEEDED.

 ELEMENT TYPE    8 IS SOLID187. IT IS NOT ASSOCIATED WITH FULLY INCOMPRESSIBLE
 HYPERELASTIC MATERIALS. NO SUGGESTION IS AVAILABLE AND NO RESETTING IS NEEDED.

 ELEMENT TYPE    9 IS SOLID187. IT IS NOT ASSOCIATED WITH FULLY INCOMPRESSIBLE
 HYPERELASTIC MATERIALS. NO SUGGESTION IS AVAILABLE AND NO RESETTING IS NEEDED.

 ELEMENT TYPE   10 IS SOLID186. KEYOPT(2)=0 IS SUGGESTED AND HAS BEEN RESET.
  KEYOPT(1-12)=    0    0    0    0    0    0    0    0    0    0    0    0

 ELEMENT TYPE   11 IS SOLID186. KEYOPT(2)=0 IS SUGGESTED AND HAS BEEN RESET.
  KEYOPT(1-12)=    0    0    0    0    0    0    0    0    0    0    0    0

 ELEMENT TYPE   12 IS SOLID186. KEYOPT(2)=0 IS SUGGESTED AND HAS BEEN RESET.
  KEYOPT(1-12)=    0    0    0    0    0    0    0    0    0    0    0    0

 ELEMENT TYPE   13 IS SOLID186. KEYOPT(2)=0 IS SUGGESTED AND HAS BEEN RESET.
  KEYOPT(1-12)=    0    0    0    0    0    0    0    0    0    0    0    0

 ELEMENT TYPE   14 IS SOLID187. IT IS NOT ASSOCIATED WITH FULLY INCOMPRESSIBLE
 HYPERELASTIC MATERIALS. NO SUGGESTION IS AVAILABLE AND NO RESETTING IS NEEDED.

 ELEMENT TYPE   15 IS SOLID186. KEYOPT(2)=0 IS SUGGESTED AND HAS BEEN RESET.
  KEYOPT(1-12)=    0    0    0    0    0    0    0    0    0    0    0    0



 *** ANSYS - ENGINEERING ANALYSIS SYSTEM  RELEASE 2020 R1          20.1     ***
 DISTRIBUTED ANSYS Mechanical Enterprise                       

 20120530  VERSION=WINDOWS x64   07:12:10  APR 16, 2020 CP=      1.234

 relay--Modal (C5)                                                             



                       S O L U T I O N   O P T I O N S

   PROBLEM DIMENSIONALITY. . . . . . . . . . . . .3-D                  
   DEGREES OF FREEDOM. . . . . . UX   UY   UZ  
   ANALYSIS TYPE . . . . . . . . . . . . . . . . .MODAL                
      EXTRACTION METHOD. . . . . . . . . . . . . .BLOCK LANCZOS
   OFFSET TEMPERATURE FROM ABSOLUTE ZERO . . . . .  273.15    
   NUMBER OF MODES TO EXTRACT. . . . . . . . . . .     6
   GLOBALLY ASSEMBLED MATRIX . . . . . . . . . . .SYMMETRIC  
   NUMBER OF MODES TO EXPAND . . . . . . . . . . .ALL
   ELEMENT RESULTS CALCULATION . . . . . . . . . .OFF

 *** NOTE ***                            CP =       1.297   TIME= 07:12:10
 The conditions for direct assembly have been met.  No .emat or .erot    
 files will be produced.                                                 

 *** NOTE ***                            CP =       2.609   TIME= 07:12:11
 Symmetric Deformable- deformable contact pair identified by real        
 constant set 16 and contact element type 16 has been set up.  The       
 companion pair has real constant set ID 17.  Both pairs should have     
 the same behavior.                                                      
 ANSYS will keep the current pair and deactivate its companion pair,     
 resulting in asymmetric contact.                                        
 Linear contact is defined
 Contact algorithm: Augmented Lagrange method
 Contact detection at: Gauss integration point
 Contact stiffness factor FKN                  1.0000    
 The resulting initial contact stiffness      0.24481E+20
 Default penetration tolerance factor FTOLN   0.10000    
 The resulting penetration tolerance          0.11846E-07
 Default opening contact stiffness OPSF will be used.
 Default tangent stiffness factor FKT          1.0000    
 Use constant contact stiffness
 Default Max. friction stress TAUMAX          0.10000E+21
 Average contact surface length               0.20433E-06
 Average contact pair depth                   0.11846E-06
 Default pinball region factor PINB           0.25000    
 The resulting pinball region                 0.29614E-07
 Initial penetration/gap is excluded.
 Bonded contact (always) is defined.

 *** NOTE ***                            CP =       2.609   TIME= 07:12:11
 Max.  Initial penetration 1.32348898E-23 was detected between contact   
 element 130839 and target element 133064.                               
 ****************************************
  

 *** NOTE ***                            CP =       2.609   TIME= 07:12:11
 Symmetric Deformable- deformable contact pair identified by real        
 constant set 17 and contact element type 16 has been set up.  The       
 companion pair has real constant set ID 16.  Both pairs should have     
 the same behavior.                                                      
 ANSYS will deactivate the current pair and keep its companion pair,     
 resulting in asymmetric contact.                                        
 Linear contact is defined
 Contact algorithm: Augmented Lagrange method
 Contact detection at: Gauss integration point
 Contact stiffness factor FKN                  1.0000    
 The resulting initial contact stiffness      0.24481E+20
 Default penetration tolerance factor FTOLN   0.10000    
 The resulting penetration tolerance          0.58110E-08
 Default opening contact stiffness OPSF will be used.
 Default tangent stiffness factor FKT          1.0000    
 Use constant contact stiffness
 Default Max. friction stress TAUMAX          0.10000E+21
 Average contact surface length               0.18247E-06
 Average contact pair depth                   0.58110E-07
 Default pinball region factor PINB           0.25000    
 The resulting pinball region                 0.14528E-07
 Initial penetration/gap is excluded.
 Bonded contact (always) is defined.

 *** NOTE ***                            CP =       2.609   TIME= 07:12:11
 Max.  Initial penetration 2.64697796E-23 was detected between contact   
 element 131982 and target element 130153.                               
 ****************************************
  

 *** NOTE ***                            CP =       2.609   TIME= 07:12:11
 Symmetric Deformable- deformable contact pair identified by real        
 constant set 18 and contact element type 18 has been set up.  The       
 companion pair has real constant set ID 19.  Both pairs should have     
 the same behavior.                                                      
 ANSYS will keep the current pair and deactivate its companion pair,     
 resulting in asymmetric contact.                                        
 Linear contact is defined
 Contact algorithm: Augmented Lagrange method
 Contact detection at: Gauss integration point
 Contact stiffness factor FKN                  1.0000    
 The resulting initial contact stiffness      0.10939E+21
 Default penetration tolerance factor FTOLN   0.10000    
 The resulting penetration tolerance          0.30562E-08
 Default opening contact stiffness OPSF will be used.
 Default tangent stiffness factor FKT          1.0000    
 Use constant contact stiffness
 Default Max. friction stress TAUMAX          0.10000E+21
 Average contact surface length               0.88870E-07
 Average contact pair depth                   0.30562E-07
 Default pinball region factor PINB           0.25000    
 The resulting pinball region                 0.76405E-08
 Initial penetration/gap is excluded.
 Bonded contact (always) is defined.

 *** NOTE ***                            CP =       2.609   TIME= 07:12:11
 Max.  Initial penetration 0 was detected between contact element 133574 
 and target element 133648.                                              
 ****************************************
  

 *** NOTE ***                            CP =       2.609   TIME= 07:12:11
 Symmetric Deformable- deformable contact pair identified by real        
 constant set 19 and contact element type 18 has been set up.  The       
 companion pair has real constant set ID 18.  Both pairs should have     
 the same behavior.                                                      
 ANSYS will deactivate the current pair and keep its companion pair,     
 resulting in asymmetric contact.                                        
 Linear contact is defined
 Contact algorithm: Augmented Lagrange method
 Contact detection at: Gauss integration point
 Contact stiffness factor FKN                  1.0000    
 The resulting initial contact stiffness      0.10939E+21
 Default penetration tolerance factor FTOLN   0.10000    
 The resulting penetration tolerance          0.68561E-08
 Default opening contact stiffness OPSF will be used.
 Default tangent stiffness factor FKT          1.0000    
 Use constant contact stiffness
 Default Max. friction stress TAUMAX          0.10000E+21
 Average contact surface length               0.22111E-06
 Average contact pair depth                   0.68561E-07
 Default pinball region factor PINB           0.25000    
 The resulting pinball region                 0.17140E-07
 Initial penetration/gap is excluded.
 Bonded contact (always) is defined.

 *** NOTE ***                            CP =       2.625   TIME= 07:12:11
 Max.  Initial penetration 0 was detected between contact element 133628 
 and target element 133550.                                              
 ****************************************
  

 *** NOTE ***                            CP =       2.625   TIME= 07:12:11
 Symmetric Deformable- deformable contact pair identified by real        
 constant set 20 and contact element type 20 has been set up.  The       
 companion pair has real constant set ID 21.  Both pairs should have     
 the same behavior.                                                      
 ANSYS will keep the current pair and deactivate its companion pair,     
 resulting in asymmetric contact.                                        
 Linear contact is defined
 Contact algorithm: Augmented Lagrange method
 Contact detection at: Gauss integration point
 Contact stiffness factor FKN                  1.0000    
 The resulting initial contact stiffness      0.11720E+21
 Default penetration tolerance factor FTOLN   0.10000    
 The resulting penetration tolerance          0.30577E-08
 Default opening contact stiffness OPSF will be used.
 Default tangent stiffness factor FKT          1.0000    
 Use constant contact stiffness
 Default Max. friction stress TAUMAX          0.10000E+21
 Average contact surface length               0.88944E-07
 Average contact pair depth                   0.30577E-07
 Default pinball region factor PINB           0.25000    
 The resulting pinball region                 0.76443E-08
 Initial penetration/gap is excluded.
 Bonded contact (always) is defined.

 *** NOTE ***                            CP =       2.625   TIME= 07:12:11
 Max.  Initial penetration 0 was detected between contact element 133714 
 and target element 133795.                                              
 ****************************************
  

 *** NOTE ***                            CP =       2.625   TIME= 07:12:11
 Symmetric Deformable- deformable contact pair identified by real        
 constant set 21 and contact element type 20 has been set up.  The       
 companion pair has real constant set ID 20.  Both pairs should have     
 the same behavior.                                                      
 ANSYS will deactivate the current pair and keep its companion pair,     
 resulting in asymmetric contact.                                        
 Linear contact is defined
 Contact algorithm: Augmented Lagrange method
 Contact detection at: Gauss integration point
 Contact stiffness factor FKN                  1.0000    
 The resulting initial contact stiffness      0.11720E+21
 Default penetration tolerance factor FTOLN   0.10000    
 The resulting penetration tolerance          0.63993E-08
 Default opening contact stiffness OPSF will be used.
 Default tangent stiffness factor FKT          1.0000    
 Use constant contact stiffness
 Default Max. friction stress TAUMAX          0.10000E+21
 Average contact surface length               0.20766E-06
 Average contact pair depth                   0.63993E-07
 Default pinball region factor PINB           0.25000    
 The resulting pinball region                 0.15998E-07
 Initial penetration/gap is excluded.
 Bonded contact (always) is defined.

 *** NOTE ***                            CP =       2.625   TIME= 07:12:11
 Max.  Initial penetration 0 was detected between contact element 133770 
 and target element 133682.                                              
 ****************************************
  

 *** NOTE ***                            CP =       2.625   TIME= 07:12:11
 Symmetric Deformable- deformable contact pair identified by real        
 constant set 22 and contact element type 22 has been set up.  The       
 companion pair has real constant set ID 23.  Both pairs should have     
 the same behavior.                                                      
 ANSYS will keep the current pair and deactivate its companion pair,     
 resulting in asymmetric contact.                                        
 Linear contact is defined
 Contact algorithm: Augmented Lagrange method
 Contact detection at: Gauss integration point
 Contact stiffness factor FKN                  1.0000    
 The resulting initial contact stiffness      0.10845E+21
 Default penetration tolerance factor FTOLN   0.10000    
 The resulting penetration tolerance          0.30562E-08
 Default opening contact stiffness OPSF will be used.
 Default tangent stiffness factor FKT          1.0000    
 Use constant contact stiffness
 Default Max. friction stress TAUMAX          0.10000E+21
 Average contact surface length               0.88684E-07
 Average contact pair depth                   0.30562E-07
 Default pinball region factor PINB           0.25000    
 The resulting pinball region                 0.76405E-08
 Initial penetration/gap is excluded.
 Bonded contact (always) is defined.

 *** NOTE ***                            CP =       2.625   TIME= 07:12:11
 Max.  Initial penetration 0 was detected between contact element 133872 
 and target element 133955.                                              
 ****************************************
  

 *** NOTE ***                            CP =       2.625   TIME= 07:12:11
 Symmetric Deformable- deformable contact pair identified by real        
 constant set 23 and contact element type 22 has been set up.  The       
 companion pair has real constant set ID 22.  Both pairs should have     
 the same behavior.                                                      
 ANSYS will deactivate the current pair and keep its companion pair,     
 resulting in asymmetric contact.                                        
 Linear contact is defined
 Contact algorithm: Augmented Lagrange method
 Contact detection at: Gauss integration point
 Contact stiffness factor FKN                  1.0000    
 The resulting initial contact stiffness      0.10845E+21
 Default penetration tolerance factor FTOLN   0.10000    
 The resulting penetration tolerance          0.69158E-08
 Default opening contact stiffness OPSF will be used.
 Default tangent stiffness factor FKT          1.0000    
 Use constant contact stiffness
 Default Max. friction stress TAUMAX          0.10000E+21
 Average contact surface length               0.22566E-06
 Average contact pair depth                   0.69158E-07
 Default pinball region factor PINB           0.25000    
 The resulting pinball region                 0.17290E-07
 Initial penetration/gap is excluded.
 Bonded contact (always) is defined.

 *** NOTE ***                            CP =       2.625   TIME= 07:12:11
 Max.  Initial penetration 0 was detected between contact element 133926 
 and target element 133850.                                              
 ****************************************
  

 *** NOTE ***                            CP =       2.625   TIME= 07:12:11
 Symmetric Deformable- deformable contact pair identified by real        
 constant set 24 and contact element type 24 has been set up.  The       
 companion pair has real constant set ID 25.  Both pairs should have     
 the same behavior.                                                      
 ANSYS will keep the current pair and deactivate its companion pair,     
 resulting in asymmetric contact.                                        
 Linear contact is defined
 Contact algorithm: Augmented Lagrange method
 Contact detection at: Gauss integration point
 Contact stiffness factor FKN                  1.0000    
 The resulting initial contact stiffness      0.11745E+21
 Default penetration tolerance factor FTOLN   0.10000    
 The resulting penetration tolerance          0.30577E-08
 Default opening contact stiffness OPSF will be used.
 Default tangent stiffness factor FKT          1.0000    
 Use constant contact stiffness
 Default Max. friction stress TAUMAX          0.10000E+21
 Average contact surface length               0.88944E-07
 Average contact pair depth                   0.30577E-07
 Default pinball region factor PINB           0.25000    
 The resulting pinball region                 0.76443E-08
 Initial penetration/gap is excluded.
 Bonded contact (always) is defined.

 *** NOTE ***                            CP =       2.625   TIME= 07:12:11
 Max.  Initial penetration 0 was detected between contact element 134012 
 and target element 134103.                                              
 ****************************************
  

 *** NOTE ***                            CP =       2.625   TIME= 07:12:11
 Symmetric Deformable- deformable contact pair identified by real        
 constant set 25 and contact element type 24 has been set up.  The       
 companion pair has real constant set ID 24.  Both pairs should have     
 the same behavior.                                                      
 ANSYS will deactivate the current pair and keep its companion pair,     
 resulting in asymmetric contact.                                        
 Linear contact is defined
 Contact algorithm: Augmented Lagrange method
 Contact detection at: Gauss integration point
 Contact stiffness factor FKN                  1.0000    
 The resulting initial contact stiffness      0.11745E+21
 Default penetration tolerance factor FTOLN   0.10000    
 The resulting penetration tolerance          0.63857E-08
 Default opening contact stiffness OPSF will be used.
 Default tangent stiffness factor FKT          1.0000    
 Use constant contact stiffness
 Default Max. friction stress TAUMAX          0.10000E+21
 Average contact surface length               0.20827E-06
 Average contact pair depth                   0.63857E-07
 Default pinball region factor PINB           0.25000    
 The resulting pinball region                 0.15964E-07
 Initial penetration/gap is excluded.
 Bonded contact (always) is defined.

 *** NOTE ***                            CP =       2.641   TIME= 07:12:11
 Max.  Initial penetration 0 was detected between contact element 134068 
 and target element 133978.                                              
 ****************************************
  

 *** NOTE ***                            CP =       2.641   TIME= 07:12:11
 Symmetric Deformable- deformable contact pair identified by real        
 constant set 26 and contact element type 26 has been set up.  The       
 companion pair has real constant set ID 27.  Both pairs should have     
 the same behavior.                                                      
 ANSYS will keep the current pair and deactivate its companion pair,     
 resulting in asymmetric contact.                                        
 Linear contact is defined
 Contact algorithm: Augmented Lagrange method
 Contact detection at: Gauss integration point
 Contact stiffness factor FKN                  1.0000    
 The resulting initial contact stiffness      0.12912E+21
 Default penetration tolerance factor FTOLN   0.10000    
 The resulting penetration tolerance          0.27337E-08
 Default opening contact stiffness OPSF will be used.
 Default tangent stiffness factor FKT          1.0000    
 Use constant contact stiffness
 Default Max. friction stress TAUMAX          0.10000E+21
 Average contact surface length               0.87026E-07
 Average contact pair depth                   0.27337E-07
 Default pinball region factor PINB           0.25000    
 The resulting pinball region                 0.68343E-08
 Initial penetration/gap is excluded.
 Bonded contact (always) is defined.

 *** NOTE ***                            CP =       2.641   TIME= 07:12:11
 Max.  Initial penetration 0 was detected between contact element 134168 
 and target element 134298.                                              
 ****************************************
  

 *** NOTE ***                            CP =       2.641   TIME= 07:12:11
 Symmetric Deformable- deformable contact pair identified by real        
 constant set 27 and contact element type 26 has been set up.  The       
 companion pair has real constant set ID 26.  Both pairs should have     
 the same behavior.                                                      
 ANSYS will deactivate the current pair and keep its companion pair,     
 resulting in asymmetric contact.                                        
 Linear contact is defined
 Contact algorithm: Augmented Lagrange method
 Contact detection at: Gauss integration point
 Contact stiffness factor FKN                  1.0000    
 The resulting initial contact stiffness      0.12912E+21
 Default penetration tolerance factor FTOLN   0.10000    
 The resulting penetration tolerance          0.58086E-08
 Default opening contact stiffness OPSF will be used.
 Default tangent stiffness factor FKT          1.0000    
 Use constant contact stiffness
 Default Max. friction stress TAUMAX          0.10000E+21
 Average contact surface length               0.18007E-06
 Average contact pair depth                   0.58086E-07
 Default pinball region factor PINB           0.25000    
 The resulting pinball region                 0.14521E-07
 Initial penetration/gap is excluded.
 Bonded contact (always) is defined.

 *** NOTE ***                            CP =       2.641   TIME= 07:12:11
 Max.  Initial penetration 0 was detected between contact element 134220 
 and target element 134155.                                              
 ****************************************
  

 *** NOTE ***                            CP =       2.641   TIME= 07:12:11
 Symmetric Deformable- deformable contact pair identified by real        
 constant set 28 and contact element type 28 has been set up.  The       
 companion pair has real constant set ID 29.  Both pairs should have     
 the same behavior.                                                      
 ANSYS will keep the current pair and deactivate its companion pair,     
 resulting in asymmetric contact.                                        
 Linear contact is defined
 Contact algorithm: Augmented Lagrange method
 Contact detection at: Gauss integration point
 Contact stiffness factor FKN                  1.0000    
 The resulting initial contact stiffness      0.13069E+21
 Default penetration tolerance factor FTOLN   0.10000    
 The resulting penetration tolerance          0.29318E-08
 Default opening contact stiffness OPSF will be used.
 Default tangent stiffness factor FKT          1.0000    
 Use constant contact stiffness
 Default Max. friction stress TAUMAX          0.10000E+21
 Average contact surface length               0.92227E-07
 Average contact pair depth                   0.29318E-07
 Default pinball region factor PINB           0.25000    
 The resulting pinball region                 0.73295E-08
 Initial penetration/gap is excluded.
 Bonded contact (always) is defined.

 *** NOTE ***                            CP =       2.641   TIME= 07:12:11
 Max.  Initial penetration 0 was detected between contact element 134352 
 and target element 134455.                                              
 ****************************************
  

 *** NOTE ***                            CP =       2.641   TIME= 07:12:11
 Symmetric Deformable- deformable contact pair identified by real        
 constant set 29 and contact element type 28 has been set up.  The       
 companion pair has real constant set ID 28.  Both pairs should have     
 the same behavior.                                                      
 ANSYS will deactivate the current pair and keep its companion pair,     
 resulting in asymmetric contact.                                        
 Linear contact is defined
 Contact algorithm: Augmented Lagrange method
 Contact detection at: Gauss integration point
 Contact stiffness factor FKN                  1.0000    
 The resulting initial contact stiffness      0.13069E+21
 Default penetration tolerance factor FTOLN   0.10000    
 The resulting penetration tolerance          0.57389E-08
 Default opening contact stiffness OPSF will be used.
 Default tangent stiffness factor FKT          1.0000    
 Use constant contact stiffness
 Default Max. friction stress TAUMAX          0.10000E+21
 Average contact surface length               0.17536E-06
 Average contact pair depth                   0.57389E-07
 Default pinball region factor PINB           0.25000    
 The resulting pinball region                 0.14347E-07
 Initial penetration/gap is excluded.
 Bonded contact (always) is defined.

 *** NOTE ***                            CP =       2.641   TIME= 07:12:11
 Max.  Initial penetration 0 was detected between contact element 134400 
 and target element 134306.                                              
 ****************************************
  

 *** NOTE ***                            CP =       2.641   TIME= 07:12:11
 Symmetric Deformable- deformable contact pair identified by real        
 constant set 30 and contact element type 30 has been set up.  The       
 companion pair has real constant set ID 31.  Both pairs should have     
 the same behavior.                                                      
 ANSYS will keep the current pair and deactivate its companion pair,     
 resulting in asymmetric contact.                                        
 Linear contact is defined
 Contact algorithm: Augmented Lagrange method
 Contact detection at: Gauss integration point
 Contact stiffness factor FKN                  1.0000    
 The resulting initial contact stiffness      0.12743E+21
 Default penetration tolerance factor FTOLN   0.10000    
 The resulting penetration tolerance          0.26426E-08
 Default opening contact stiffness OPSF will be used.
 Default tangent stiffness factor FKT          1.0000    
 Use constant contact stiffness
 Default Max. friction stress TAUMAX          0.10000E+21
 Average contact surface length               0.80032E-07
 Average contact pair depth                   0.26426E-07
 Default pinball region factor PINB           0.25000    
 The resulting pinball region                 0.66065E-08
 Initial penetration/gap is excluded.
 Bonded contact (always) is defined.

 *** NOTE ***                            CP =       2.641   TIME= 07:12:11
 Max.  Initial penetration 0 was detected between contact element 134544 
 and target element 134648.                                              
 ****************************************
  

 *** NOTE ***                            CP =       2.641   TIME= 07:12:11
 Symmetric Deformable- deformable contact pair identified by real        
 constant set 31 and contact element type 30 has been set up.  The       
 companion pair has real constant set ID 30.  Both pairs should have     
 the same behavior.                                                      
 ANSYS will deactivate the current pair and keep its companion pair,     
 resulting in asymmetric contact.                                        
 Linear contact is defined
 Contact algorithm: Augmented Lagrange method
 Contact detection at: Gauss integration point
 Contact stiffness factor FKN                  1.0000    
 The resulting initial contact stiffness      0.12743E+21
 Default penetration tolerance factor FTOLN   0.10000    
 The resulting penetration tolerance          0.58854E-08
 Default opening contact stiffness OPSF will be used.
 Default tangent stiffness factor FKT          1.0000    
 Use constant contact stiffness
 Default Max. friction stress TAUMAX          0.10000E+21
 Average contact surface length               0.18548E-06
 Average contact pair depth                   0.58854E-07
 Default pinball region factor PINB           0.25000    
 The resulting pinball region                 0.14714E-07
 Initial penetration/gap is excluded.
 Bonded contact (always) is defined.

 *** NOTE ***                            CP =       2.641   TIME= 07:12:11
 Max.  Initial penetration 0 was detected between contact element 134602 
 and target element 134513.                                              
 ****************************************
  

 *** NOTE ***                            CP =       2.641   TIME= 07:12:11
 Symmetric Deformable- deformable contact pair identified by real        
 constant set 32 and contact element type 32 has been set up.  The       
 companion pair has real constant set ID 33.  Both pairs should have     
 the same behavior.                                                      
 ANSYS will keep the current pair and deactivate its companion pair,     
 resulting in asymmetric contact.                                        
 Linear contact is defined
 Contact algorithm: Augmented Lagrange method
 Contact detection at: Gauss integration point
 Contact stiffness factor FKN                  1.0000    
 The resulting initial contact stiffness      0.12797E+21
 Default penetration tolerance factor FTOLN   0.10000    
 The resulting penetration tolerance          0.29308E-08
 Default opening contact stiffness OPSF will be used.
 Default tangent stiffness factor FKT          1.0000    
 Use constant contact stiffness
 Default Max. friction stress TAUMAX          0.10000E+21
 Average contact surface length               0.92467E-07
 Average contact pair depth                   0.29308E-07
 Default pinball region factor PINB           0.25000    
 The resulting pinball region                 0.73269E-08
 Initial penetration/gap is excluded.
 Bonded contact (always) is defined.

 *** NOTE ***                            CP =       2.641   TIME= 07:12:11
 Max.  Initial penetration 0 was detected between contact element 134734 
 and target element 134869.                                              
 ****************************************
  

 *** NOTE ***                            CP =       2.641   TIME= 07:12:11
 Symmetric Deformable- deformable contact pair identified by real        
 constant set 33 and contact element type 32 has been set up.  The       
 companion pair has real constant set ID 32.  Both pairs should have     
 the same behavior.                                                      
 ANSYS will deactivate the current pair and keep its companion pair,     
 resulting in asymmetric contact.                                        
 Linear contact is defined
 Contact algorithm: Augmented Lagrange method
 Contact detection at: Gauss integration point
 Contact stiffness factor FKN                  1.0000    
 The resulting initial contact stiffness      0.12797E+21
 Default penetration tolerance factor FTOLN   0.10000    
 The resulting penetration tolerance          0.58607E-08
 Default opening contact stiffness OPSF will be used.
 Default tangent stiffness factor FKT          1.0000    
 Use constant contact stiffness
 Default Max. friction stress TAUMAX          0.10000E+21
 Average contact surface length               0.18366E-06
 Average contact pair depth                   0.58607E-07
 Default pinball region factor PINB           0.25000    
 The resulting pinball region                 0.14652E-07
 Initial penetration/gap is excluded.
 Bonded contact (always) is defined.

 *** NOTE ***                            CP =       2.641   TIME= 07:12:11
 Max.  Initial penetration 0 was detected between contact element 134782 
 and target element 134727.                                              
 ****************************************
  

 *** NOTE ***                            CP =       2.641   TIME= 07:12:11
 Symmetric Deformable- deformable contact pair identified by real        
 constant set 34 and contact element type 34 has been set up.  The       
 companion pair has real constant set ID 35.  Both pairs should have     
 the same behavior.                                                      
 ANSYS will keep the current pair and deactivate its companion pair,     
 resulting in asymmetric contact.                                        
 Linear contact is defined
 Contact algorithm: Augmented Lagrange method
 Contact detection at: Gauss integration point
 Contact stiffness factor FKN                  1.0000    
 The resulting initial contact stiffness      0.58000E+20
 Default penetration tolerance factor FTOLN   0.10000    
 The resulting penetration tolerance          0.50000E-08
 Default opening contact stiffness OPSF will be used.
 Default tangent stiffness factor FKT          1.0000    
 Use constant contact stiffness
 Default Max. friction stress TAUMAX          0.10000E+21
 Average contact surface length               0.66667E-07
 Average contact pair depth                   0.50000E-07
 Default pinball region factor PINB           0.25000    
 The resulting pinball region                 0.12500E-07
 Initial penetration/gap is excluded.
 Bonded contact (always) is defined.

 *** NOTE ***                            CP =       2.641   TIME= 07:12:11
 Max.  Initial penetration 0 was detected between contact element 134906 
 and target element 134970.                                              
 ****************************************
  

 *** NOTE ***                            CP =       2.641   TIME= 07:12:11
 Symmetric Deformable- deformable contact pair identified by real        
 constant set 35 and contact element type 34 has been set up.  The       
 companion pair has real constant set ID 34.  Both pairs should have     
 the same behavior.                                                      
 ANSYS will deactivate the current pair and keep its companion pair,     
 resulting in asymmetric contact.                                        
 Linear contact is defined
 Contact algorithm: Augmented Lagrange method
 Contact detection at: Gauss integration point
 Contact stiffness factor FKN                  1.0000    
 The resulting initial contact stiffness      0.58000E+20
 Default penetration tolerance factor FTOLN   0.10000    
 The resulting penetration tolerance          0.67128E-08
 Default opening contact stiffness OPSF will be used.
 Default tangent stiffness factor FKT          1.0000    
 Use constant contact stiffness
 Default Max. friction stress TAUMAX          0.10000E+21
 Average contact surface length               0.21990E-06
 Average contact pair depth                   0.67128E-07
 Default pinball region factor PINB           0.25000    
 The resulting pinball region                 0.16782E-07
 Initial penetration/gap is excluded.
 Bonded contact (always) is defined.

 *** NOTE ***                            CP =       2.641   TIME= 07:12:11
 Max.  Initial penetration 0 was detected between contact element 134943 
 and target element 134895.                                              
 ****************************************
  

 *** NOTE ***                            CP =       2.641   TIME= 07:12:11
 Symmetric Deformable- deformable contact pair identified by real        
 constant set 36 and contact element type 36 has been set up.  The       
 companion pair has real constant set ID 37.  Both pairs should have     
 the same behavior.                                                      
 ANSYS will keep the current pair and deactivate its companion pair,     
 resulting in asymmetric contact.                                        
 Linear contact is defined
 Contact algorithm: Augmented Lagrange method
 Contact detection at: Gauss integration point
 Contact stiffness factor FKN                  1.0000    
 The resulting initial contact stiffness      0.54167E+20
 Default penetration tolerance factor FTOLN   0.10000    
 The resulting penetration tolerance          0.50000E-08
 Default opening contact stiffness OPSF will be used.
 Default tangent stiffness factor FKT          1.0000    
 Use constant contact stiffness
 Default Max. friction stress TAUMAX          0.10000E+21
 Average contact surface length               0.66667E-07
 Average contact pair depth                   0.50000E-07
 Default pinball region factor PINB           0.25000    
 The resulting pinball region                 0.12500E-07
 Initial penetration/gap is excluded.
 Bonded contact (always) is defined.

 *** NOTE ***                            CP =       2.641   TIME= 07:12:11
 Max.  Initial penetration 2.64697796E-23 was detected between contact   
 element 135035 and target element 135056.                               
 ****************************************
  

 *** NOTE ***                            CP =       2.641   TIME= 07:12:11
 Symmetric Deformable- deformable contact pair identified by real        
 constant set 37 and contact element type 36 has been set up.  The       
 companion pair has real constant set ID 36.  Both pairs should have     
 the same behavior.                                                      
 ANSYS will deactivate the current pair and keep its companion pair,     
 resulting in asymmetric contact.                                        
 Linear contact is defined
 Contact algorithm: Augmented Lagrange method
 Contact detection at: Gauss integration point
 Contact stiffness factor FKN                  1.0000    
 The resulting initial contact stiffness      0.54167E+20
 Default penetration tolerance factor FTOLN   0.10000    
 The resulting penetration tolerance          0.13846E-07
 Default opening contact stiffness OPSF will be used.
 Default tangent stiffness factor FKT          1.0000    
 Use constant contact stiffness
 Default Max. friction stress TAUMAX          0.10000E+21
 Average contact surface length               0.46154E-06
 Average contact pair depth                   0.13846E-06
 Default pinball region factor PINB           0.25000    
 The resulting pinball region                 0.34615E-07
 Initial penetration/gap is excluded.
 Bonded contact (always) is defined.

 *** NOTE ***                            CP =       2.641   TIME= 07:12:11
 Max.  Initial penetration 1.32348898E-23 was detected between contact   
 element 135052 and target element 134998.                               
 ****************************************
  

 *** NOTE ***                            CP =       2.641   TIME= 07:12:11
 Symmetric Deformable- deformable contact pair identified by real        
 constant set 38 and contact element type 38 has been set up.  The       
 companion pair has real constant set ID 39.  Both pairs should have     
 the same behavior.                                                      
 ANSYS will keep the current pair and deactivate its companion pair,     
 resulting in asymmetric contact.                                        
 Linear contact is defined
 Contact algorithm: Augmented Lagrange method
 Contact detection at: Gauss integration point
 Contact stiffness factor FKN                  1.0000    
 The resulting initial contact stiffness      0.58000E+20
 Default penetration tolerance factor FTOLN   0.10000    
 The resulting penetration tolerance          0.50000E-08
 Default opening contact stiffness OPSF will be used.
 Default tangent stiffness factor FKT          1.0000    
 Use constant contact stiffness
 Default Max. friction stress TAUMAX          0.10000E+21
 Average contact surface length               0.66667E-07
 Average contact pair depth                   0.50000E-07
 Default pinball region factor PINB           0.25000    
 The resulting pinball region                 0.12500E-07
 Initial penetration/gap is excluded.
 Bonded contact (always) is defined.

 *** NOTE ***                            CP =       2.641   TIME= 07:12:11
 Max.  Initial penetration 0 was detected between contact element 135096 
 and target element 135163.                                              
 ****************************************
  

 *** NOTE ***                            CP =       2.641   TIME= 07:12:11
 Symmetric Deformable- deformable contact pair identified by real        
 constant set 39 and contact element type 38 has been set up.  The       
 companion pair has real constant set ID 38.  Both pairs should have     
 the same behavior.                                                      
 ANSYS will deactivate the current pair and keep its companion pair,     
 resulting in asymmetric contact.                                        
 Linear contact is defined
 Contact algorithm: Augmented Lagrange method
 Contact detection at: Gauss integration point
 Contact stiffness factor FKN                  1.0000    
 The resulting initial contact stiffness      0.58000E+20
 Default penetration tolerance factor FTOLN   0.10000    
 The resulting penetration tolerance          0.70820E-08
 Default opening contact stiffness OPSF will be used.
 Default tangent stiffness factor FKT          1.0000    
 Use constant contact stiffness
 Default Max. friction stress TAUMAX          0.10000E+21
 Average contact surface length               0.22998E-06
 Average contact pair depth                   0.70820E-07
 Default pinball region factor PINB           0.25000    
 The resulting pinball region                 0.17705E-07
 Initial penetration/gap is excluded.
 Bonded contact (always) is defined.

 *** NOTE ***                            CP =       2.641   TIME= 07:12:11
 Max.  Initial penetration 0 was detected between contact element 135138 
 and target element 135076.                                              
 ****************************************
  

 *** NOTE ***                            CP =       2.641   TIME= 07:12:11
 Symmetric Deformable- deformable contact pair identified by real        
 constant set 40 and contact element type 40 has been set up.  The       
 companion pair has real constant set ID 41.  Both pairs should have     
 the same behavior.                                                      
 ANSYS will keep the current pair and deactivate its companion pair,     
 resulting in asymmetric contact.                                        
 Linear contact is defined
 Contact algorithm: Augmented Lagrange method
 Contact detection at: Gauss integration point
 Contact stiffness factor FKN                  1.0000    
 The resulting initial contact stiffness      0.54167E+20
 Default penetration tolerance factor FTOLN   0.10000    
 The resulting penetration tolerance          0.50000E-08
 Default opening contact stiffness OPSF will be used.
 Default tangent stiffness factor FKT          1.0000    
 Use constant contact stiffness
 Default Max. friction stress TAUMAX          0.10000E+21
 Average contact surface length               0.66667E-07
 Average contact pair depth                   0.50000E-07
 Default pinball region factor PINB           0.25000    
 The resulting pinball region                 0.12500E-07
 Initial penetration/gap is excluded.
 Bonded contact (always) is defined.

 *** NOTE ***                            CP =       2.641   TIME= 07:12:11
 Max.  Initial penetration 1.32348898E-23 was detected between contact   
 element 135206 and target element 135249.                               
 ****************************************
  

 *** NOTE ***                            CP =       2.641   TIME= 07:12:11
 Symmetric Deformable- deformable contact pair identified by real        
 constant set 41 and contact element type 40 has been set up.  The       
 companion pair has real constant set ID 40.  Both pairs should have     
 the same behavior.                                                      
 ANSYS will deactivate the current pair and keep its companion pair,     
 resulting in asymmetric contact.                                        
 Linear contact is defined
 Contact algorithm: Augmented Lagrange method
 Contact detection at: Gauss integration point
 Contact stiffness factor FKN                  1.0000    
 The resulting initial contact stiffness      0.54167E+20
 Default penetration tolerance factor FTOLN   0.10000    
 The resulting penetration tolerance          0.13846E-07
 Default opening contact stiffness OPSF will be used.
 Default tangent stiffness factor FKT          1.0000    
 Use constant contact stiffness
 Default Max. friction stress TAUMAX          0.10000E+21
 Average contact surface length               0.46154E-06
 Average contact pair depth                   0.13846E-06
 Default pinball region factor PINB           0.25000    
 The resulting pinball region                 0.34615E-07
 Initial penetration/gap is excluded.
 Bonded contact (always) is defined.

 *** NOTE ***                            CP =       2.641   TIME= 07:12:11
 Max.  Initial penetration 2.64697796E-23 was detected between contact   
 element 135242 and target element 135191.                               
 ****************************************
  

 *** NOTE ***                            CP =       2.641   TIME= 07:12:11
 Symmetric Deformable- deformable contact pair identified by real        
 constant set 42 and contact element type 42 has been set up.  The       
 companion pair has real constant set ID 43.  Both pairs should have     
 the same behavior.                                                      
 ANSYS will keep the current pair and deactivate its companion pair,     
 resulting in asymmetric contact.                                        
 Linear contact is defined
 Contact algorithm: Augmented Lagrange method
 Contact detection at: Gauss integration point
 Contact stiffness factor FKN                  1.0000    
 The resulting initial contact stiffness      0.58000E+20
 Default penetration tolerance factor FTOLN   0.10000    
 The resulting penetration tolerance          0.50000E-08
 Default opening contact stiffness OPSF will be used.
 Default tangent stiffness factor FKT          1.0000    
 Use constant contact stiffness
 Default Max. friction stress TAUMAX          0.10000E+21
 Average contact surface length               0.66667E-07
 Average contact pair depth                   0.50000E-07
 Default pinball region factor PINB           0.25000    
 The resulting pinball region                 0.12500E-07
 Initial penetration/gap is excluded.
 Bonded contact (always) is defined.

 *** NOTE ***                            CP =       2.641   TIME= 07:12:11
 Max.  Initial penetration 0 was detected between contact element 135286 
 and target element 135355.                                              
 ****************************************
  

 *** NOTE ***                            CP =       2.641   TIME= 07:12:11
 Symmetric Deformable- deformable contact pair identified by real        
 constant set 43 and contact element type 42 has been set up.  The       
 companion pair has real constant set ID 42.  Both pairs should have     
 the same behavior.                                                      
 ANSYS will deactivate the current pair and keep its companion pair,     
 resulting in asymmetric contact.                                        
 Linear contact is defined
 Contact algorithm: Augmented Lagrange method
 Contact detection at: Gauss integration point
 Contact stiffness factor FKN                  1.0000    
 The resulting initial contact stiffness      0.58000E+20
 Default penetration tolerance factor FTOLN   0.10000    
 The resulting penetration tolerance          0.70820E-08
 Default opening contact stiffness OPSF will be used.
 Default tangent stiffness factor FKT          1.0000    
 Use constant contact stiffness
 Default Max. friction stress TAUMAX          0.10000E+21
 Average contact surface length               0.22998E-06
 Average contact pair depth                   0.70820E-07
 Default pinball region factor PINB           0.25000    
 The resulting pinball region                 0.17705E-07
 Initial penetration/gap is excluded.
 Bonded contact (always) is defined.

 *** NOTE ***                            CP =       2.641   TIME= 07:12:11
 Max.  Initial penetration 0 was detected between contact element 135328 
 and target element 135258.                                              
 ****************************************
  

 *** NOTE ***                            CP =       2.641   TIME= 07:12:11
 Symmetric Deformable- deformable contact pair identified by real        
 constant set 44 and contact element type 44 has been set up.  The       
 companion pair has real constant set ID 45.  Both pairs should have     
 the same behavior.                                                      
 ANSYS will keep the current pair and deactivate its companion pair,     
 resulting in asymmetric contact.                                        
 Linear contact is defined
 Contact algorithm: Augmented Lagrange method
 Contact detection at: Gauss integration point
 Contact stiffness factor FKN                  1.0000    
 The resulting initial contact stiffness      0.54167E+20
 Default penetration tolerance factor FTOLN   0.10000    
 The resulting penetration tolerance          0.50000E-08
 Default opening contact stiffness OPSF will be used.
 Default tangent stiffness factor FKT          1.0000    
 Use constant contact stiffness
 Default Max. friction stress TAUMAX          0.10000E+21
 Average contact surface length               0.66667E-07
 Average contact pair depth                   0.50000E-07
 Default pinball region factor PINB           0.25000    
 The resulting pinball region                 0.12500E-07
 Initial penetration/gap is excluded.
 Bonded contact (always) is defined.

 *** NOTE ***                            CP =       2.641   TIME= 07:12:11
 Max.  Initial penetration 2.64697796E-23 was detected between contact   
 element 135424 and target element 135437.                               
 ****************************************
  

 *** NOTE ***                            CP =       2.641   TIME= 07:12:11
 Symmetric Deformable- deformable contact pair identified by real        
 constant set 45 and contact element type 44 has been set up.  The       
 companion pair has real constant set ID 44.  Both pairs should have     
 the same behavior.                                                      
 ANSYS will deactivate the current pair and keep its companion pair,     
 resulting in asymmetric contact.                                        
 Linear contact is defined
 Contact algorithm: Augmented Lagrange method
 Contact detection at: Gauss integration point
 Contact stiffness factor FKN                  1.0000    
 The resulting initial contact stiffness      0.54167E+20
 Default penetration tolerance factor FTOLN   0.10000    
 The resulting penetration tolerance          0.13846E-07
 Default opening contact stiffness OPSF will be used.
 Default tangent stiffness factor FKT          1.0000    
 Use constant contact stiffness
 Default Max. friction stress TAUMAX          0.10000E+21
 Average contact surface length               0.46154E-06
 Average contact pair depth                   0.13846E-06
 Default pinball region factor PINB           0.25000    
 The resulting pinball region                 0.34615E-07
 Initial penetration/gap is excluded.
 Bonded contact (always) is defined.

 *** NOTE ***                            CP =       2.641   TIME= 07:12:11
 Max.  Initial penetration 1.32348898E-23 was detected between contact   
 element 135432 and target element 135392.                               
 ****************************************
  

 *** NOTE ***                            CP =       2.641   TIME= 07:12:11
 Symmetric Deformable- deformable contact pair identified by real        
 constant set 46 and contact element type 46 has been set up.  The       
 companion pair has real constant set ID 47.  Both pairs should have     
 the same behavior.                                                      
 ANSYS will keep the current pair and deactivate its companion pair,     
 resulting in asymmetric contact.                                        
 Linear contact is defined
 Contact algorithm: Augmented Lagrange method
 Contact detection at: Gauss integration point
 Contact stiffness factor FKN                  1.0000    
 The resulting initial contact stiffness      0.58000E+20
 Default penetration tolerance factor FTOLN   0.10000    
 The resulting penetration tolerance          0.50000E-08
 Default opening contact stiffness OPSF will be used.
 Default tangent stiffness factor FKT          1.0000    
 Use constant contact stiffness
 Default Max. friction stress TAUMAX          0.10000E+21
 Average contact surface length               0.66667E-07
 Average contact pair depth                   0.50000E-07
 Default pinball region factor PINB           0.25000    
 The resulting pinball region                 0.12500E-07
 Initial penetration/gap is excluded.
 Bonded contact (always) is defined.

 *** NOTE ***                            CP =       2.641   TIME= 07:12:11
 Max.  Initial penetration 0 was detected between contact element 135476 
 and target element 135548.                                              
 ****************************************
  

 *** NOTE ***                            CP =       2.641   TIME= 07:12:11
 Symmetric Deformable- deformable contact pair identified by real        
 constant set 47 and contact element type 46 has been set up.  The       
 companion pair has real constant set ID 46.  Both pairs should have     
 the same behavior.                                                      
 ANSYS will deactivate the current pair and keep its companion pair,     
 resulting in asymmetric contact.                                        
 Linear contact is defined
 Contact algorithm: Augmented Lagrange method
 Contact detection at: Gauss integration point
 Contact stiffness factor FKN                  1.0000    
 The resulting initial contact stiffness      0.58000E+20
 Default penetration tolerance factor FTOLN   0.10000    
 The resulting penetration tolerance          0.68686E-08
 Default opening contact stiffness OPSF will be used.
 Default tangent stiffness factor FKT          1.0000    
 Use constant contact stiffness
 Default Max. friction stress TAUMAX          0.10000E+21
 Average contact surface length               0.22435E-06
 Average contact pair depth                   0.68686E-07
 Default pinball region factor PINB           0.25000    
 The resulting pinball region                 0.17172E-07
 Initial penetration/gap is excluded.
 Bonded contact (always) is defined.

 *** NOTE ***                            CP =       2.641   TIME= 07:12:11
 Max.  Initial penetration 0 was detected between contact element 135517 
 and target element 135459.                                              
 ****************************************
  

 *** NOTE ***                            CP =       2.641   TIME= 07:12:11
 Symmetric Deformable- deformable contact pair identified by real        
 constant set 48 and contact element type 48 has been set up.  The       
 companion pair has real constant set ID 49.  Both pairs should have     
 the same behavior.                                                      
 ANSYS will keep the current pair and deactivate its companion pair,     
 resulting in asymmetric contact.                                        
 Linear contact is defined
 Contact algorithm: Augmented Lagrange method
 Contact detection at: Gauss integration point
 Contact stiffness factor FKN                  1.0000    
 The resulting initial contact stiffness      0.54167E+20
 Default penetration tolerance factor FTOLN   0.10000    
 The resulting penetration tolerance          0.50000E-08
 Default opening contact stiffness OPSF will be used.
 Default tangent stiffness factor FKT          1.0000    
 Use constant contact stiffness
 Default Max. friction stress TAUMAX          0.10000E+21
 Average contact surface length               0.66667E-07
 Average contact pair depth                   0.50000E-07
 Default pinball region factor PINB           0.25000    
 The resulting pinball region                 0.12500E-07
 Initial penetration/gap is excluded.
 Bonded contact (always) is defined.

 *** NOTE ***                            CP =       2.641   TIME= 07:12:11
 Max.  Initial penetration 2.64697796E-23 was detected between contact   
 element 135597 and target element 135628.                               
 ****************************************
  

 *** NOTE ***                            CP =       2.641   TIME= 07:12:11
 Symmetric Deformable- deformable contact pair identified by real        
 constant set 49 and contact element type 48 has been set up.  The       
 companion pair has real constant set ID 48.  Both pairs should have     
 the same behavior.                                                      
 ANSYS will deactivate the current pair and keep its companion pair,     
 resulting in asymmetric contact.                                        
 Linear contact is defined
 Contact algorithm: Augmented Lagrange method
 Contact detection at: Gauss integration point
 Contact stiffness factor FKN                  1.0000    
 The resulting initial contact stiffness      0.54167E+20
 Default penetration tolerance factor FTOLN   0.10000    
 The resulting penetration tolerance          0.13846E-07
 Default opening contact stiffness OPSF will be used.
 Default tangent stiffness factor FKT          1.0000    
 Use constant contact stiffness
 Default Max. friction stress TAUMAX          0.10000E+21
 Average contact surface length               0.46154E-06
 Average contact pair depth                   0.13846E-06
 Default pinball region factor PINB           0.25000    
 The resulting pinball region                 0.34615E-07
 Initial penetration/gap is excluded.
 Bonded contact (always) is defined.

 *** NOTE ***                            CP =       2.641   TIME= 07:12:11
 Max.  Initial penetration 1.32348898E-23 was detected between contact   
 element 135624 and target element 135567.                               
 ****************************************
  

 *** NOTE ***                            CP =       2.641   TIME= 07:12:11
 Symmetric Deformable- deformable contact pair identified by real        
 constant set 50 and contact element type 50 has been set up.  The       
 companion pair has real constant set ID 51.  Both pairs should have     
 the same behavior.                                                      
 ANSYS will keep the current pair and deactivate its companion pair,     
 resulting in asymmetric contact.                                        
 Small sliding logic is assumed
 Contact algorithm: Augmented Lagrange method
 Contact detection at: Gauss integration point
 Contact stiffness factor FKN                 0.10000    
 The resulting initial contact stiffness      0.54167E+19
 Default penetration tolerance factor FTOLN   0.10000    
 The resulting penetration tolerance          0.57922E-08
 Frictionless contact pair is defined
 Update contact stiffness at each iteration
 Average contact surface length               0.18124E-06
 Average contact pair depth                   0.57922E-07
 Default pinball region factor PINB            1.0000    
 The resulting pinball region                 0.57922E-07
 *WARNING*: Initial penetration is included.

 *** NOTE ***                            CP =       2.641   TIME= 07:12:11
 No contact was detected for this contact pair.                          
 ****************************************
  

 *** NOTE ***                            CP =       2.641   TIME= 07:12:11
 Symmetric Deformable- deformable contact pair identified by real        
 constant set 51 and contact element type 50 has been set up.  The       
 companion pair has real constant set ID 50.  Both pairs should have     
 the same behavior.                                                      
 ANSYS will deactivate the current pair and keep its companion pair,     
 resulting in asymmetric contact.                                        
 Small sliding logic is assumed
 Contact algorithm: Augmented Lagrange method
 Contact detection at: Gauss integration point
 Contact stiffness factor FKN                 0.10000    
 The resulting initial contact stiffness      0.54167E+19
 Default penetration tolerance factor FTOLN   0.10000    
 The resulting penetration tolerance          0.13846E-07
 Frictionless contact pair is defined
 Update contact stiffness at each iteration
 Average contact surface length               0.46154E-06
 Average contact pair depth                   0.13846E-06
 Default pinball region factor PINB            1.0000    
 The resulting pinball region                 0.13846E-06
 *WARNING*: Initial penetration is included.

 *** NOTE ***                            CP =       2.641   TIME= 07:12:11
 Min.  Initial gap 1.E-07 was detected between contact element 137596    
 and target element 136003.                                              
 You may move entire target surface by: x= 9.076990523E-24, y=           
 2.428937559E-24, z= -1.E-07, to bring it in contact.                    
 ****************************************
  

 *** NOTE ***                            CP =       2.641   TIME= 07:12:11
 Symmetric Deformable- deformable contact pair identified by real        
 constant set 52 and contact element type 52 has been set up.  The       
 companion pair has real constant set ID 53.  Both pairs should have     
 the same behavior.                                                      
 ANSYS will keep the current pair and deactivate its companion pair,     
 resulting in asymmetric contact.                                        
 Small sliding logic is assumed
 Contact algorithm: Augmented Lagrange method
 Contact detection at: Gauss integration point
 Contact stiffness factor FKN                 0.10000    
 The resulting initial contact stiffness      0.54167E+19
 Default penetration tolerance factor FTOLN   0.10000    
 The resulting penetration tolerance          0.54274E-08
 Frictionless contact pair is defined
 Update contact stiffness at each iteration
 Average contact surface length               0.66177E-07
 Average contact pair depth                   0.54274E-07
 Default pinball region factor PINB            1.0000    
 *WARNING*: The default pinball radius may be too small to capture       
 contacting zone under small sliding assumption.  Redefine the pinball   
 radius if necessary.                                                    
 The resulting pinball region                 0.54274E-07
 *WARNING*: Initial penetration is included.

 *** NOTE ***                            CP =       2.641   TIME= 07:12:11
 Min.  Initial gap 5.192000573E-08 was detected between contact element  
 137949 and target element 138253.                                       
 You may move entire target surface by: x= 6.346526996E-24, y=           
[...]
       53       195  TARGE170      0.000   0.000000
       54       195  CONTA174      0.000   0.000000
       55       195  TARGE170      0.000   0.000000
       56       192  CONTA174      0.016   0.000081
       57       192  TARGE170      0.000   0.000000
       58       192  CONTA174      0.000   0.000000
       59       192  TARGE170      0.000   0.000000
       60       195  CONTA174      0.016   0.000080
       61       195  TARGE170      0.000   0.000000
       62       195  CONTA174      0.016   0.000080
       63       195  TARGE170      0.016   0.000080
       64       195  CONTA174      0.016   0.000080
       65       195  TARGE170      0.000   0.000000
       66       192  CONTA174      0.000   0.000000
       67       192  TARGE170      0.000   0.000000
       68       192  CONTA174      0.000   0.000000
       69       192  TARGE170      0.000   0.000000
       70       195  CONTA174      0.016   0.000080
       71       195  TARGE170      0.000   0.000000
       72       195  CONTA174      0.016   0.000080
       73       195  TARGE170      0.000   0.000000
       74       192  CONTA174      0.031   0.000163
       75       192  TARGE170      0.000   0.000000
       76       192  CONTA174      0.000   0.000000
       77       192  TARGE170      0.000   0.000000
       78       195  CONTA174      0.000   0.000000
       79       195  TARGE170      0.000   0.000000
       80       195  CONTA174      0.016   0.000080
       81       195  TARGE170      0.016   0.000080
 Time at end of element matrix formulation CP = 5.0625.                  

  BLOCK LANCZOS CALCULATION OF UP TO     6 EIGENVECTORS.
  NUMBER OF EQUATIONS              =        58692
  MAXIMUM WAVEFRONT                =          330
  MAXIMUM MODES STORED             =            6
  MINIMUM EIGENVALUE               =  0.00000E+00
  MAXIMUM EIGENVALUE               =  0.10000E+31


  Local memory allocated for solver              =    117.984 MB
  Local memory required for in-core solution     =    112.493 MB
  Local memory required for out-of-core solution =     41.648 MB

  Total memory allocated for solver              =    232.268 MB
  Total memory required for in-core solution     =    221.454 MB
  Total memory required for out-of-core solution =     84.833 MB

 *** NOTE ***                            CP =       8.188   TIME= 07:12:20
 The Distributed Sparse Matrix Solver used by the Block Lanczos          
 eigensolver is currently running in the in-core memory mode.  This      
 memory mode uses the most amount of memory in order to avoid using the  
 hard drive as much as possible, which most often results in the         
 fastest solution time.  This mode is recommended if enough physical     
 memory is present to accommodate all of the solver data.                

 *** ANSYS - ENGINEERING ANALYSIS SYSTEM  RELEASE 2020 R1          20.1     ***
 DISTRIBUTED ANSYS Mechanical Enterprise                       

 20120530  VERSION=WINDOWS x64   07:12:25  APR 16, 2020 CP=      9.938

 relay--Modal (C5)                                                             



 *** FREQUENCIES FROM BLOCK LANCZOS ITERATION ***

  MODE    FREQUENCY (HERTZ)      


    1     9125826.844246    
    2     14955487.79108    
    3     14960326.30713    
    4     70551209.52152    
    5     70585320.73561    
    6     71054307.18688    

 *** ANSYS - ENGINEERING ANALYSIS SYSTEM  RELEASE 2020 R1          20.1     ***
 DISTRIBUTED ANSYS Mechanical Enterprise                       

 20120530  VERSION=WINDOWS x64   07:12:25  APR 16, 2020 CP=     10.109

 relay--Modal (C5)                                                             





          ***** PARTICIPATION FACTOR CALCULATION *****  X  DIRECTION
                                                                                  CUMULATIVE     RATIO EFF.MASS
  MODE   FREQUENCY       PERIOD      PARTIC.FACTOR     RATIO    EFFECTIVE MASS   MASS FRACTION   TO TOTAL MASS
     1    0.912583E+07   0.10958E-06  -0.72323E-11    0.000078    0.523064E-22    0.607301E-08    0.206191E-08
     2    0.149555E+08   0.66865E-07   0.15505E-08    0.016769    0.240393E-17    0.279113E-03    0.947625E-04
     3    0.149603E+08   0.66843E-07   0.60657E-09    0.006560    0.367924E-18    0.321831E-03    0.145035E-04
     4    0.705512E+08   0.14174E-07  -0.72253E-08    0.078146    0.522057E-16    0.638314E-02    0.205794E-02
     5    0.705853E+08   0.14167E-07   0.92459E-07    1.000000    0.854873E-14    0.998929        0.336990    
     6    0.710543E+08   0.14074E-07  -0.30371E-08    0.032848    0.922425E-17     1.00000        0.363619E-03
 -----------------------------------------------------------------------------------------------------------------
   sum                                                            0.861293E-14                    0.339520    
 -----------------------------------------------------------------------------------------------------------------



          ***** PARTICIPATION FACTOR CALCULATION *****  Y  DIRECTION
                                                                                  CUMULATIVE     RATIO EFF.MASS
  MODE   FREQUENCY       PERIOD      PARTIC.FACTOR     RATIO    EFFECTIVE MASS   MASS FRACTION   TO TOTAL MASS
     1    0.912583E+07   0.10958E-06  -0.15269E-10    0.000165    0.233139E-21    0.270768E-07    0.919032E-08
     2    0.149555E+08   0.66865E-07   0.60082E-09    0.006498    0.360985E-18    0.419518E-04    0.142300E-04
     3    0.149603E+08   0.66843E-07  -0.15535E-08    0.016803    0.241335E-17    0.322238E-03    0.951338E-04
     4    0.705512E+08   0.14174E-07   0.92456E-07    1.000000    0.854806E-14    0.993093        0.336963    
     5    0.705853E+08   0.14167E-07   0.71285E-08    0.077102    0.508155E-16    0.998995        0.200314E-02
     6    0.710543E+08   0.14074E-07  -0.29416E-08    0.031816    0.865280E-17     1.00000        0.341092E-03
 -----------------------------------------------------------------------------------------------------------------
   sum                                                            0.861030E-14                    0.339417    
 -----------------------------------------------------------------------------------------------------------------



          ***** PARTICIPATION FACTOR CALCULATION *****  Z  DIRECTION
                                                                                  CUMULATIVE     RATIO EFF.MASS
  MODE   FREQUENCY       PERIOD      PARTIC.FACTOR     RATIO    EFFECTIVE MASS   MASS FRACTION   TO TOTAL MASS
     1    0.912583E+07   0.10958E-06   0.95600E-07    1.000000    0.913933E-14    0.999997        0.360271    
     2    0.149555E+08   0.66865E-07   0.21029E-10    0.000220    0.442235E-21    0.999997        0.174329E-07
     3    0.149603E+08   0.66843E-07   0.16269E-09    0.001702    0.264673E-19     1.00000        0.104334E-05
     4    0.705512E+08   0.14174E-07   0.35984E-10    0.000376    0.129485E-20     1.00000        0.510426E-07
     5    0.705853E+08   0.14167E-07  -0.95239E-11    0.000100    0.907047E-22     1.00000        0.357557E-08
     6    0.710543E+08   0.14074E-07   0.35230E-11    0.000037    0.124114E-22     1.00000        0.489256E-09
 -----------------------------------------------------------------------------------------------------------------
   sum                                                            0.913935E-14                    0.360272    
 -----------------------------------------------------------------------------------------------------------------



          ***** PARTICIPATION FACTOR CALCULATION *****ROTX DIRECTION
                                                                                  CUMULATIVE     RATIO EFF.MASS
  MODE   FREQUENCY       PERIOD      PARTIC.FACTOR     RATIO    EFFECTIVE MASS   MASS FRACTION   TO TOTAL MASS
     1    0.912583E+07   0.10958E-06    0.0000        0.000000     0.00000         0.00000         0.00000    
     2    0.149555E+08   0.66865E-07    0.0000        0.000000     0.00000         0.00000         0.00000    
     3    0.149603E+08   0.66843E-07   0.93172E-13    1.000000    0.868104E-26    0.994382        0.147483    
     4    0.705512E+08   0.14174E-07  -0.69545E-14    0.074642    0.483657E-28    0.999922        0.821687E-03
     5    0.705853E+08   0.14167E-07    0.0000        0.000000     0.00000        0.999922         0.00000    
     6    0.710543E+08   0.14074E-07    0.0000        0.000000     0.00000        0.999922         0.00000    
 -----------------------------------------------------------------------------------------------------------------
   sum                                                            0.873009E-26                    0.148316    
 -----------------------------------------------------------------------------------------------------------------



          ***** PARTICIPATION FACTOR CALCULATION *****ROTY DIRECTION
                                                                                  CUMULATIVE     RATIO EFF.MASS
  MODE   FREQUENCY       PERIOD      PARTIC.FACTOR     RATIO    EFFECTIVE MASS   MASS FRACTION   TO TOTAL MASS
     1    0.912583E+07   0.10958E-06    0.0000        0.000000     0.00000         0.00000         0.00000    
     2    0.149555E+08   0.66865E-07   0.93173E-13    1.000000    0.868121E-26    0.994367        0.147486    
     3    0.149603E+08   0.66843E-07    0.0000        0.000000     0.00000        0.994367         0.00000    
     4    0.705512E+08   0.14174E-07    0.0000        0.000000     0.00000        0.994367         0.00000    
     5    0.705853E+08   0.14167E-07   0.69664E-14    0.074768    0.485306E-28    0.999926        0.824488E-03
     6    0.710543E+08   0.14074E-07    0.0000        0.000000     0.00000        0.999926         0.00000    
 -----------------------------------------------------------------------------------------------------------------
   sum                                                            0.873039E-26                    0.148321    
 -----------------------------------------------------------------------------------------------------------------



          ***** PARTICIPATION FACTOR CALCULATION *****ROTZ DIRECTION
                                                                                  CUMULATIVE     RATIO EFF.MASS
  MODE   FREQUENCY       PERIOD      PARTIC.FACTOR     RATIO    EFFECTIVE MASS   MASS FRACTION   TO TOTAL MASS
     1    0.912583E+07   0.10958E-06    0.0000        0.000000     0.00000         0.00000         0.00000    
     2    0.149555E+08   0.66865E-07    0.0000        0.000000     0.00000         0.00000         0.00000    
     3    0.149603E+08   0.66843E-07    0.0000        0.000000     0.00000         0.00000         0.00000    
     4    0.705512E+08   0.14174E-07    0.0000        0.000000     0.00000         0.00000         0.00000    
     5    0.705853E+08   0.14167E-07    0.0000        0.000000     0.00000         0.00000         0.00000    
     6    0.710543E+08   0.14074E-07    0.0000        0.000000     0.00000         0.00000         0.00000    





 *** NOTE ***                            CP =      10.125   TIME= 07:12:25
 The modes requested are mass normalized (Nrmkey on MODOPT).  However,   
 the modal masses and kinetic energies below are calculated with unit    
 normalized modes.                                                       

        ***** MODAL MASSES, KINETIC ENERGIES, AND TRANSLATIONAL EFFECTIVE MASSES SUMMARY *****

                                                                         EFFECTIVE MASS
  MODE  FREQUENCY   MODAL MASS     KENE      |      X-DIR      RATIO%   Y-DIR      RATIO%   Z-DIR      RATIO% 
     1  0.9126E+07  0.8224E-14   13.52       |    0.5231E-22    0.00  0.2331E-21    0.00  0.9139E-14   36.03
     2  0.1496E+08  0.2027E-14   8.949       |    0.2404E-17    0.01  0.3610E-18    0.00  0.4422E-21    0.00
     3  0.1496E+08  0.2025E-14   8.945       |    0.3679E-18    0.00  0.2413E-17    0.01  0.2647E-19    0.00
     4  0.7055E+08  0.8405E-14   825.8       |    0.5221E-16    0.21  0.8548E-14   33.70  0.1295E-20    0.00
     5  0.7059E+08  0.8291E-14   815.4       |    0.8549E-14   33.70  0.5082E-16    0.20  0.9070E-22    0.00
     6  0.7105E+08  0.1493E-14   148.8       |    0.9224E-17    0.04  0.8653E-17    0.03  0.1241E-22    0.00
 --------------------------------------------------------------------------------------------------------------
   sum                                       |    0.8613E-14   33.95  0.8610E-14   33.94  0.9139E-14   36.03
 --------------------------------------------------------------------------------------------------------------


 *** ANSYS BINARY FILE STATISTICS
  BUFFER SIZE USED= 16384
       26.688 MB WRITTEN ON ELEMENT SAVED DATA FILE: file0.esav
       20.875 MB WRITTEN ON ASSEMBLED MATRIX FILE: file0.full
        2.562 MB WRITTEN ON MODAL MATRIX FILE: file0.mode
        5.188 MB WRITTEN ON RESULTS FILE: file0.rst
 *************** Write FE CONNECTORS *********

 WRITE OUT CONSTRAINT EQUATIONS TO FILE= file.ce                                                                                                                                                                                                                                                             

 *GET  _NMODALSOLPROC  FROM  ACTI  ITEM=NUMC       VALUE=  2.00000000    

 FINISH SOLUTION PROCESSING


 ***** ROUTINE COMPLETED *****  CP =        10.422



 PRINTOUT RESUMED BY /GOP

 *GET  _WALLASOL  FROM  ACTI  ITEM=TIME WALL  VALUE=  7.20722222    

 *** ANSYS - ENGINEERING ANALYSIS SYSTEM  RELEASE 2020 R1          20.1     ***
 DISTRIBUTED ANSYS Mechanical Enterprise                       

 20120530  VERSION=WINDOWS x64   07:12:26  APR 16, 2020 CP=     10.438

 relay--Modal (C5)                                                             



          ***** ANSYS RESULTS INTERPRETATION (POST1) *****

 *** NOTE ***                            CP =      10.438   TIME= 07:12:26
 Reading results into the database (SET command) will update the current 
 displacement and force boundary conditions in the database with the     
 values from the results file for that load set.  Note that any          
 subsequent solutions will use these values unless action is taken to    
 either SAVE the current values or not overwrite them (/EXIT,NOSAVE).    

 PRINTOUT RESUMED BY /GOP

 Set Encoding of XML File to:ISO-8859-1

 Set Output of XML File to:
     PARM,     ,     ,     ,     ,     ,     ,     ,     ,     ,     ,     ,
         ,     ,     ,     ,     ,     ,     ,

 DATABASE WRITTEN ON FILE  parm.xml                                                                                                                                                                                                                                                            

 EXIT THE ANSYS POST1 DATABASE PROCESSOR


 ***** ROUTINE COMPLETED *****  CP =        10.469



 PRINTOUT RESUMED BY /GOP

 *GET  _WALLDONE  FROM  ACTI  ITEM=TIME WALL  VALUE=  7.20722222    

 PARAMETER _PREPTIME =     1.000000000    

 PARAMETER _SOLVTIME =     16.00000000    

 PARAMETER _POSTTIME =     0.000000000    

 PARAMETER _TOTALTIM =     17.00000000    

 *GET  _DLBRATIO  FROM  ACTI  ITEM=SOLU DLBR  VALUE=  1.00171143    

 *GET  _COMBTIME  FROM  ACTI  ITEM=SOLU COMB  VALUE= 0.374842100    
 --- Number of total nodes = 20124
 --- Number of total elements = 21331
 --- Element load balance ratio = 1.00171143
 --- Time to combine distributed files = 0.3748421

 EXIT ANSYS WITHOUT SAVING DATABASE


 NUMBER OF WARNING MESSAGES ENCOUNTERED=          3
 NUMBER OF ERROR   MESSAGES ENCOUNTERED=          0

+--------- D I S T R I B U T E D   A N S Y S   S T A T I S T I C S ------------+

Release: 2020 R1            Build: 20.1       Update: UP20191203   Platform: WINDOWS x64 
Date Run: 04/16/2020   Time: 07:12     Process ID: 6836
Operating System: Windows 10  (Build: 18363)

Processor Model: Intel(R) Core(TM) i5-6360U CPU @ 2.00GHz

Compiler: Intel(R) FORTRAN Compiler Version 19.0.0  (Build: 20190206)
          Intel(R) C/C++ Compiler Version 19.0.0  (Build: 20190206)
          Intel(R) Math Kernel Library Version 2019.0.3 Product Build 20190125

Number of machines requested            :    1
Total number of cores available         :    2
Number of physical cores available      :    2
Number of processes requested           :    2
Number of threads per process requested :    1
Total number of cores requested         :    2 (Distributed Memory Parallel)               
MPI Type: INTELMPI
MPI Version: Intel(R) MPI Library 2018 Update 3 for Windows* OS


GPU Acceleration: Not Requested

Job Name: file0
Input File: dummy.dat

  Core                Machine Name   Working Directory
 -----------------------------------------------------
     0             DESKTOP-H2RNGL6   C:\Users\Akash Levy\Documents\NEM-Relay-CAD\ansys\_ProjectScratch\Scr5559
     1             DESKTOP-H2RNGL6   C:\Users\Akash Levy\Documents\NEM-Relay-CAD\ansys\_ProjectScratch\Scr5559
 
Latency time from master to core     1 =    9.287 microseconds
 
Communication speed from master to core     1 =  1337.17 MB/sec

Total CPU time for main thread                    :       10.7 seconds
Total CPU time summed for all threads             :       10.5 seconds

Elapsed time spent obtaining a license            :        1.3 seconds
Elapsed time spent pre-processing model (/PREP7)  :        0.3 seconds
Elapsed time spent solution - preprocessing       :        2.4 seconds
Elapsed time spent computing solution             :       12.9 seconds
Elapsed time spent solution - postprocessing      :        0.4 seconds
Elapsed time spent post-processing model (/POST1) :        0.1 seconds
 
Eigensolver used                                  :            Block Lanczos
Equation solver computational rate                :        3.8 Gflops
Equation solver effective I/O rate                :        1.7 GB/sec

Maximum total memory used                         :      698.0 MB
Maximum total memory allocated                    :     3136.0 MB
Total physical memory available                   :          4 GB

Total amount of I/O written to disk               :        0.1 GB
Total amount of I/O read from disk                :        0.1 GB

+------ E N D   D I S T R I B U T E D   A N S Y S   S T A T I S T I C S -------+


 *---------------------------------------------------------------------------*
 |                                                                           |
 |                       DISTRIBUTED ANSYS RUN COMPLETED                     |
 |                                                                           |
 |---------------------------------------------------------------------------|
 |                                                                           |
 | Ansys 2020 R1               Build 20.1         UP20191203     WINDOWS x64 |
 |                                                                           |
 |---------------------------------------------------------------------------|
 |                                                                           |
 | Database Requested(-db)  1024 MB    Scratch Memory Requested      1024 MB |
 | Maximum Database Used      33 MB    Maximum Scratch Memory Used    357 MB |
 |                                                                           |
 |---------------------------------------------------------------------------|
 |                                                                           |
 |        CP Time      (sec) =         10.516       Time  =  07:12:26        |
 |        Elapsed Time (sec) =         20.000       Date  =  04/16/2020      |
 |                                                                           |
 *---------------------------------------------------------------------------*
