
 ANSYS Mechanical Enterprise                       


 *------------------------------------------------------------------*
 |                                                                  |
 |   W E L C O M E   T O   T H E   A N S Y S (R)  P R O G R A M     |
 |                                                                  |
 *------------------------------------------------------------------*




 ***************************************************************
 *            ANSYS 2020 R1          LEGAL NOTICES             *
 ***************************************************************
 *                                                             *
 * Copyright 1971-2020 ANSYS, Inc.  All rights reserved.       *
 * Unauthorized use, distribution or duplication is            *
 * prohibited.                                                 *
 *                                                             *
 * Ansys is a registered trademark of ANSYS, Inc. or its       *
 * subsidiaries in the United States or other countries.       *
 * See the ANSYS, Inc. online documentation or the ANSYS, Inc. *
 * documentation CD or online help for the complete Legal      *
 * Notice.                                                     *
 *                                                             *
 ***************************************************************
 *                                                             *
 * THIS ANSYS SOFTWARE PRODUCT AND PROGRAM DOCUMENTATION       *
 * INCLUDE TRADE SECRETS AND CONFIDENTIAL AND PROPRIETARY      *
 * PRODUCTS OF ANSYS, INC., ITS SUBSIDIARIES, OR LICENSORS.    *
 * The software products and documentation are furnished by    *
 * ANSYS, Inc. or its subsidiaries under a software license    *
 * agreement that contains provisions concerning               *
 * non-disclosure, copying, length and nature of use,          *
 * compliance with exporting laws, warranties, disclaimers,    *
 * limitations of liability, and remedies, and other           *
 * provisions.  The software products and documentation may be *
 * used, disclosed, transferred, or copied only in accordance  *
 * with the terms and conditions of that software license      *
 * agreement.                                                  *
 *                                                             *
 * ANSYS, Inc. is a UL registered                              *
 * ISO 9001:2015 company.                                      *
 *                                                             *
 ***************************************************************
 *                                                             *
 * This product is subject to U.S. laws governing export and   *
 * re-export.                                                  *
 *                                                             *
 * For U.S. Government users, except as specifically granted   *
 * by the ANSYS, Inc. software license agreement, the use,     *
 * duplication, or disclosure by the United States Government  *
 * is subject to restrictions stated in the ANSYS, Inc.        *
 * software license agreement and FAR 12.212 (for non-DOD      *
 * licenses).                                                  *
 *                                                             *
 ***************************************************************

 2020 R1 
     
 Point Releases and Patches installed:   
     
 ANSYS, Inc. Products 2020 R1
 SpaceClaim 2020 R1  
 AIM 2020 R1 
 Live (includes SpaceClaim) 2020 R1  
 Autodyn 2020 R1 
 LS-DYNA 2020 R1 
 CFX (includes CFD-Post) 2020 R1 
 Chemkin 2020 R1 
 EnSight 2020 R1 
 FENSAP-ICE 2020 R1  
 Fluent (includes CFD-Post) 2020 R1  
 Forte 2020 R1   
 Polyflow (includes CFD-Post) 2020 R1
 TurboGrid 2020 R1   
 ICEM CFD 2020 R1
 Aqwa 2020 R1
 Customization Files for User Programmable Features 2020 R1  
 Mechanical Products 2020 R1 
 Additive 2020 R1
 ANSYS Sherlock 2020 R1  
 Icepak (includes CFD-Post) 2020 R1  
 ACIS Geometry Interface 2020 R1 
 AutoCAD Geometry Interface 2020 R1  
 Catia, Version 4 Geometry Interface 2020 R1 
 Catia, Version 5 Geometry Interface 2020 R1 
 Catia, Version 6 Geometry Interface 2020 R1 
 Creo Elements/Direct Modeling Geometry Interface 2020 R1
 Creo Parametric Geometry Interface 2020 R1  
 Inventor Geometry Interface 2020 R1 
 JTOpen Geometry Interface 2020 R1   
 NX Geometry Interface 2020 R1   
 Parasolid Geometry Interface  2020 R1   
 Solid Edge Geometry Interface 2020 R1   
 SOLIDWORKS Geometry Interface 2020 R1   
 ANSYS, Inc. License Manager 2020 R1 


          *****  ANSYS COMMAND LINE ARGUMENTS  *****
  BATCH MODE REQUESTED (-b)    = NOLIST
  INPUT FILE COPY MODE (-c)    = COPY
  DISTRIBUTED MEMORY PARALLEL REQUESTED
       2 PARALLEL PROCESSES REQUESTED WITH SINGLE THREAD PER PROCESS
    TOTAL OF     2 CORES REQUESTED
  INPUT FILE NAME              = C:\Users\Akash Levy\Documents\NEM-Relay-CAD\_ProjectScratch\Scr667F\dummy.dat
  OUTPUT FILE NAME             = C:\Users\Akash Levy\Documents\NEM-Relay-CAD\_ProjectScratch\Scr667F\solve.out
  START-UP FILE MODE           = NOREAD
  STOP FILE MODE               = NOREAD

 RELEASE= 2020 R1              BUILD= 20.1      UP20191203   VERSION=WINDOWS x64 
 CURRENT JOBNAME=file0  04:51:54  APR 05, 2020 CP=      0.469


 PARAMETER _DS_PROGRESS =     999.0000000    

 /INPUT FILE= ds.dat  LINE=       0



 *** NOTE ***                            CP =       0.656   TIME= 04:51:54
 The /CONFIG,NOELDB command is not valid in a Distributed ANSYS          
 solution.  Command is ignored.                                          

 *GET  _WALLSTRT  FROM  ACTI  ITEM=TIME WALL  VALUE=  4.86500000    

 TITLE= 
 relay--Modal (C5)                                                             


 SET PARAMETER DIMENSIONS ON  _WB_PROJECTSCRATCH_DIR
  TYPE=STRI  DIMENSIONS=      248        1        1

 PARAMETER _WB_PROJECTSCRATCH_DIR(1) = C:\Users\Akash Levy\Documents\NEM-Relay-CAD\_ProjectScratch\Scr667F\

 SET PARAMETER DIMENSIONS ON  _WB_SOLVERFILES_DIR
  TYPE=STRI  DIMENSIONS=      248        1        1

 PARAMETER _WB_SOLVERFILES_DIR(1) = C:\Users\Akash Levy\Documents\NEM-Relay-CAD\relay_files\dp0\SYS-12\MECH\

 SET PARAMETER DIMENSIONS ON  _WB_USERFILES_DIR
  TYPE=STRI  DIMENSIONS=      248        1        1

 PARAMETER _WB_USERFILES_DIR(1) = C:\Users\Akash Levy\Documents\NEM-Relay-CAD\relay_files\user_files\
 --- Data in consistent MKS units. See Solving Units in the help system for more

 MKS UNITS SPECIFIED FOR INTERNAL    
  LENGTH        (l)  = METER (M)
  MASS          (M)  = KILOGRAM (KG)
  TIME          (t)  = SECOND (SEC)
  TEMPERATURE   (T)  = CELSIUS (C)
  TOFFSET            = 273.0
  CHARGE        (Q)  = COULOMB
  FORCE         (f)  = NEWTON (N) (KG-M/SEC2)
  HEAT               = JOULE (N-M)

  PRESSURE           = PASCAL (NEWTON/M**2)
  ENERGY        (W)  = JOULE (N-M)
  POWER         (P)  = WATT (N-M/SEC)
  CURRENT       (i)  = AMPERE (COULOMBS/SEC)
  CAPACITANCE   (C)  = FARAD
  INDUCTANCE    (L)  = HENRY
  MAGNETIC FLUX      = WEBER
  RESISTANCE    (R)  = OHM
  ELECTRIC POTENTIAL = VOLT

 INPUT  UNITS ARE ALSO SET TO MKS 

 *** ANSYS - ENGINEERING ANALYSIS SYSTEM  RELEASE 2020 R1          20.1     ***
 DISTRIBUTED ANSYS Mechanical Enterprise                       

 20120530  VERSION=WINDOWS x64   04:51:54  APR 05, 2020 CP=      0.656

 relay--Modal (C5)                                                             



          ***** ANSYS ANALYSIS DEFINITION (PREP7) *****
 *********** Nodes for the whole assembly ***********
 *********** Elements for Body 1 "Relay" ***********
 *********** Elements for Body 2 "Contact 1" ***********
 *********** Elements for Body 3 "Contact 2" ***********
 *********** Elements for Body 4 "Contact 3" ***********
 *********** Elements for Body 5 "Contact 4" ***********
 *********** Elements for Body 6 "Contact 5" ***********
 *********** Elements for Body 7 "Contact 6" ***********
 *********** Elements for Body 8 "Contact 7" ***********
 *********** Elements for Body 9 "Contact 8" ***********
 *********** Elements for Body 10 "Substrate" ***********
 *********** Send User Defined Coordinate System(s) ***********
 *********** Set Reference Temperature ***********
 *********** Send Materials ***********
 *********** Create Contact "Contact Region 10" ***********
             Real Constant Set For Above Contact Is 12 & 11
 *********** Create Contact "Contact Region 11" ***********
             Real Constant Set For Above Contact Is 14 & 13
 *********** Create Contact "Contact Region 12" ***********
             Real Constant Set For Above Contact Is 16 & 15
 *********** Create Contact "Contact Region 13" ***********
             Real Constant Set For Above Contact Is 18 & 17
 *********** Create Contact "Contact Region 14" ***********
             Real Constant Set For Above Contact Is 20 & 19
 *********** Create Contact "Contact Region 15" ***********
             Real Constant Set For Above Contact Is 22 & 21
 *********** Create Contact "Contact Region 16" ***********
             Real Constant Set For Above Contact Is 24 & 23
 *********** Create Contact "Contact Region 17" ***********
             Real Constant Set For Above Contact Is 26 & 25
 *********** Create Contact "Contact Region 9" ***********
             Real Constant Set For Above Contact Is 28 & 27
 *********** Fixed Supports ***********


 ***** ROUTINE COMPLETED *****  CP =         0.828


 --- Number of total nodes = 11350
 --- Number of contact elements = 1726
 --- Number of spring elements = 0
 --- Number of bearing elements = 0
 --- Number of solid elements = 4550
 --- Number of condensed parts = 0
 --- Number of total elements = 6276

 *GET  _WALLBSOL  FROM  ACTI  ITEM=TIME WALL  VALUE=  4.86500000    

 *****  ANSYS SOLUTION ROUTINE  *****


 PERFORM A MODAL ANALYSIS
  THIS WILL BE A NEW ANALYSIS

 PARAMETER _THICKRATIO =     0.000000000    


 USE SYM. BLOCK LANCZOS MODE EXTRACTION METHOD
  EXTRACT     6 MODES
  NORMALIZE THE MODE SHAPES TO THE MASS MATRIX

 ERASE THE CURRENT DATABASE OUTPUT CONTROL TABLE.


 WRITE ALL  ITEMS TO THE DATABASE WITH A FREQUENCY OF NONE
   FOR ALL APPLICABLE ENTITIES

 WRITE NSOL ITEMS TO THE DATABASE WITH A FREQUENCY OF ALL 
   FOR ALL APPLICABLE ENTITIES

 WRITE ETMP ITEMS TO THE DATABASE WITH A FREQUENCY OF ALL 
   FOR ALL APPLICABLE ENTITIES


 EXPAND ALL EXTRACTED MODES
  DO NOT CALCULATE ELEMENT RESULTS

 DO NOT COMBINE ELEMENT SAVE DATA FILES (.esav) AFTER DISTRIBUTED PARALLEL SOLUTION

 DO NOT COMBINE ELEMENT MATRIX FILES (.emat) AFTER DISTRIBUTED PARALLEL SOLUTION

 DO NOT COMBINE ASSEMBLED MATRIX FILES (.full) AFTER DISTRIBUTED PARALLEL SOLUTION

 *GET  ANSINTER_  FROM  ACTI  ITEM=INT        VALUE=  0.00000000    

 *IF  ANSINTER_                         ( =   0.00000     )  NE  
      0                                 ( =   0.00000     )  THEN    

 *ENDIF

 *** NOTE ***                            CP =       0.828   TIME= 04:51:54
 The automatic domain decomposition logic has selected the MESH domain   
 decomposition method with 2 processes per solution.                     

 *****  ANSYS SOLVE    COMMAND  *****

 *** WARNING ***                         CP =       0.828   TIME= 04:51:54
 Element shape checking is currently inactive.  Issue SHPP,ON or         
 SHPP,WARN to reactivate, if desired.                                    

 *** NOTE ***                            CP =       0.859   TIME= 04:51:54
 The model data was checked and warning messages were found.             
  Please review output or errors file ( C:\Users\Akash                   
 Levy\Documents\NEM-Relay-CAD\_ProjectScratch\Scr667F\file0.err ) for    
 these warning messages.                                                 

 *** SELECTION OF ELEMENT TECHNOLOGIES FOR APPLICABLE ELEMENTS ***
      --- GIVE SUGGESTIONS AND RESET THE KEY OPTIONS ---

 ELEMENT TYPE    1 IS SOLID187. IT IS NOT ASSOCIATED WITH FULLY INCOMPRESSIBLE
 HYPERELASTIC MATERIALS. NO SUGGESTION IS AVAILABLE AND NO RESETTING IS NEEDED.

 ELEMENT TYPE    2 IS SOLID186. KEYOPT(2)=0 IS SUGGESTED AND HAS BEEN RESET.
  KEYOPT(1-12)=    0    0    0    0    0    0    0    0    0    0    0    0

 ELEMENT TYPE    3 IS SOLID186. KEYOPT(2)=0 IS SUGGESTED AND HAS BEEN RESET.
  KEYOPT(1-12)=    0    0    0    0    0    0    0    0    0    0    0    0

 ELEMENT TYPE    4 IS SOLID186. KEYOPT(2)=0 IS SUGGESTED AND HAS BEEN RESET.
  KEYOPT(1-12)=    0    0    0    0    0    0    0    0    0    0    0    0

 ELEMENT TYPE    5 IS SOLID186. KEYOPT(2)=0 IS SUGGESTED AND HAS BEEN RESET.
  KEYOPT(1-12)=    0    0    0    0    0    0    0    0    0    0    0    0

 ELEMENT TYPE    6 IS SOLID187. IT IS NOT ASSOCIATED WITH FULLY INCOMPRESSIBLE
 HYPERELASTIC MATERIALS. NO SUGGESTION IS AVAILABLE AND NO RESETTING IS NEEDED.

 ELEMENT TYPE    7 IS SOLID187. IT IS NOT ASSOCIATED WITH FULLY INCOMPRESSIBLE
 HYPERELASTIC MATERIALS. NO SUGGESTION IS AVAILABLE AND NO RESETTING IS NEEDED.

 ELEMENT TYPE    8 IS SOLID187. IT IS NOT ASSOCIATED WITH FULLY INCOMPRESSIBLE
 HYPERELASTIC MATERIALS. NO SUGGESTION IS AVAILABLE AND NO RESETTING IS NEEDED.

 ELEMENT TYPE    9 IS SOLID187. IT IS NOT ASSOCIATED WITH FULLY INCOMPRESSIBLE
 HYPERELASTIC MATERIALS. NO SUGGESTION IS AVAILABLE AND NO RESETTING IS NEEDED.

 ELEMENT TYPE   10 IS SOLID186. KEYOPT(2)=0 IS SUGGESTED AND HAS BEEN RESET.
  KEYOPT(1-12)=    0    0    0    0    0    0    0    0    0    0    0    0



 *** ANSYS - ENGINEERING ANALYSIS SYSTEM  RELEASE 2020 R1          20.1     ***
 DISTRIBUTED ANSYS Mechanical Enterprise                       

 20120530  VERSION=WINDOWS x64   04:51:54  APR 05, 2020 CP=      0.859

 relay--Modal (C5)                                                             



                       S O L U T I O N   O P T I O N S

   PROBLEM DIMENSIONALITY. . . . . . . . . . . . .3-D                  
   DEGREES OF FREEDOM. . . . . . UX   UY   UZ  
   ANALYSIS TYPE . . . . . . . . . . . . . . . . .MODAL                
      EXTRACTION METHOD. . . . . . . . . . . . . .BLOCK LANCZOS
   OFFSET TEMPERATURE FROM ABSOLUTE ZERO . . . . .  273.15    
   NUMBER OF MODES TO EXTRACT. . . . . . . . . . .     6
   GLOBALLY ASSEMBLED MATRIX . . . . . . . . . . .SYMMETRIC  
   NUMBER OF MODES TO EXPAND . . . . . . . . . . .ALL
   ELEMENT RESULTS CALCULATION . . . . . . . . . .OFF

 *** NOTE ***                            CP =       0.875   TIME= 04:51:54
 The conditions for direct assembly have been met.  No .emat or .erot    
 files will be produced.                                                 

 *** NOTE ***                            CP =       1.078   TIME= 04:51:54
 Symmetric Deformable- deformable contact pair identified by real        
 constant set 11 and contact element type 11 has been set up.  The       
 companion pair has real constant set ID 12.  Both pairs should have     
 the same behavior.                                                      
 ANSYS will deactivate the current pair and keep its companion pair,     
 resulting in asymmetric contact.                                        
 Linear contact is defined
 Contact algorithm: Augmented Lagrange method
 Contact detection at: Gauss integration point
 Contact stiffness factor FKN                  10.000    
 The resulting initial contact stiffness      0.24380E+21
 Default penetration tolerance factor FTOLN   0.10000    
 The resulting penetration tolerance          0.11895E-07
 Default opening contact stiffness OPSF will be used.
 Default tangent stiffness factor FKT          1.0000    
 Use constant contact stiffness
 Default Max. friction stress TAUMAX          0.10000E+21
 Average contact surface length               0.16582E-06
 Average contact pair depth                   0.11895E-06
 Default pinball region factor PINB           0.25000    
 The resulting pinball region                 0.29737E-07
 Initial penetration/gap is excluded.
 Bonded contact (always) is defined.

 *** NOTE ***                            CP =       1.078   TIME= 04:51:54
 Max.  Initial penetration 0 was detected between contact element 8261   
 and target element 8364.                                                
 ****************************************
  

 *** NOTE ***                            CP =       1.078   TIME= 04:51:54
 Symmetric Deformable- deformable contact pair identified by real        
 constant set 12 and contact element type 11 has been set up.  The       
 companion pair has real constant set ID 11.  Both pairs should have     
 the same behavior.                                                      
 ANSYS will keep the current pair and deactivate its companion pair,     
 resulting in asymmetric contact.                                        
 Linear contact is defined
 Contact algorithm: Augmented Lagrange method
 Contact detection at: Gauss integration point
 Contact stiffness factor FKN                  10.000    
 The resulting initial contact stiffness      0.24380E+21
 Default penetration tolerance factor FTOLN   0.10000    
 The resulting penetration tolerance          0.24439E-08
 Default opening contact stiffness OPSF will be used.
 Default tangent stiffness factor FKT          1.0000    
 Use constant contact stiffness
 Default Max. friction stress TAUMAX          0.10000E+21
 Average contact surface length               0.62426E-07
 Average contact pair depth                   0.24439E-07
 Default pinball region factor PINB           0.25000    
 The resulting pinball region                 0.61097E-08
 Initial penetration/gap is excluded.
 Bonded contact (always) is defined.

 *** NOTE ***                            CP =       1.078   TIME= 04:51:54
 Max.  Initial penetration 0 was detected between contact element 8321   
 and target element 8219.                                                
 ****************************************
  

 *** NOTE ***                            CP =       1.078   TIME= 04:51:54
 Symmetric Deformable- deformable contact pair identified by real        
 constant set 13 and contact element type 13 has been set up.  The       
 companion pair has real constant set ID 14.  Both pairs should have     
 the same behavior.                                                      
 ANSYS will deactivate the current pair and keep its companion pair,     
 resulting in asymmetric contact.                                        
 Linear contact is defined
 Contact algorithm: Augmented Lagrange method
 Contact detection at: Gauss integration point
 Contact stiffness factor FKN                  10.000    
 The resulting initial contact stiffness      0.26104E+21
 Default penetration tolerance factor FTOLN   0.10000    
 The resulting penetration tolerance          0.11109E-07
 Default opening contact stiffness OPSF will be used.
 Default tangent stiffness factor FKT          1.0000    
 Use constant contact stiffness
 Default Max. friction stress TAUMAX          0.10000E+21
 Average contact surface length               0.16438E-06
 Average contact pair depth                   0.11109E-06
 Default pinball region factor PINB           0.25000    
 The resulting pinball region                 0.27773E-07
 Initial penetration/gap is excluded.
 Bonded contact (always) is defined.

 *** NOTE ***                            CP =       1.078   TIME= 04:51:54
 Max.  Initial penetration 0 was detected between contact element 8458   
 and target element 8560.                                                
 ****************************************
  

 *** NOTE ***                            CP =       1.078   TIME= 04:51:54
 Symmetric Deformable- deformable contact pair identified by real        
 constant set 14 and contact element type 13 has been set up.  The       
 companion pair has real constant set ID 13.  Both pairs should have     
 the same behavior.                                                      
 ANSYS will keep the current pair and deactivate its companion pair,     
 resulting in asymmetric contact.                                        
 Linear contact is defined
 Contact algorithm: Augmented Lagrange method
 Contact detection at: Gauss integration point
 Contact stiffness factor FKN                  10.000    
 The resulting initial contact stiffness      0.26104E+21
 Default penetration tolerance factor FTOLN   0.10000    
 The resulting penetration tolerance          0.24439E-08
 Default opening contact stiffness OPSF will be used.
 Default tangent stiffness factor FKT          1.0000    
 Use constant contact stiffness
 Default Max. friction stress TAUMAX          0.10000E+21
 Average contact surface length               0.62426E-07
 Average contact pair depth                   0.24439E-07
 Default pinball region factor PINB           0.25000    
 The resulting pinball region                 0.61097E-08
 Initial penetration/gap is excluded.
 Bonded contact (always) is defined.

 *** NOTE ***                            CP =       1.078   TIME= 04:51:54
 Max.  Initial penetration 0 was detected between contact element 8517   
 and target element 8406.                                                
 ****************************************
  

 *** NOTE ***                            CP =       1.078   TIME= 04:51:54
 Symmetric Deformable- deformable contact pair identified by real        
 constant set 15 and contact element type 15 has been set up.  The       
 companion pair has real constant set ID 16.  Both pairs should have     
 the same behavior.                                                      
 ANSYS will deactivate the current pair and keep its companion pair,     
 resulting in asymmetric contact.                                        
 Linear contact is defined
 Contact algorithm: Augmented Lagrange method
 Contact detection at: Gauss integration point
 Contact stiffness factor FKN                  10.000    
 The resulting initial contact stiffness      0.23942E+21
 Default penetration tolerance factor FTOLN   0.10000    
 The resulting penetration tolerance          0.12112E-07
 Default opening contact stiffness OPSF will be used.
 Default tangent stiffness factor FKT          1.0000    
 Use constant contact stiffness
 Default Max. friction stress TAUMAX          0.10000E+21
 Average contact surface length               0.16528E-06
 Average contact pair depth                   0.12112E-06
 Default pinball region factor PINB           0.25000    
 The resulting pinball region                 0.30281E-07
 Initial penetration/gap is excluded.
 Bonded contact (always) is defined.

 *** NOTE ***                            CP =       1.078   TIME= 04:51:54
 Max.  Initial penetration 0 was detected between contact element 8655   
 and target element 8785.                                                
 ****************************************
  

 *** NOTE ***                            CP =       1.078   TIME= 04:51:54
 Symmetric Deformable- deformable contact pair identified by real        
 constant set 16 and contact element type 15 has been set up.  The       
 companion pair has real constant set ID 15.  Both pairs should have     
 the same behavior.                                                      
 ANSYS will keep the current pair and deactivate its companion pair,     
 resulting in asymmetric contact.                                        
 Linear contact is defined
 Contact algorithm: Augmented Lagrange method
 Contact detection at: Gauss integration point
 Contact stiffness factor FKN                  10.000    
 The resulting initial contact stiffness      0.23942E+21
 Default penetration tolerance factor FTOLN   0.10000    
 The resulting penetration tolerance          0.26261E-08
 Default opening contact stiffness OPSF will be used.
 Default tangent stiffness factor FKT          1.0000    
 Use constant contact stiffness
 Default Max. friction stress TAUMAX          0.10000E+21
 Average contact surface length               0.62426E-07
 Average contact pair depth                   0.26261E-07
 Default pinball region factor PINB           0.25000    
 The resulting pinball region                 0.65652E-08
 Initial penetration/gap is excluded.
 Bonded contact (always) is defined.

 *** NOTE ***                            CP =       1.078   TIME= 04:51:54
 Max.  Initial penetration 0 was detected between contact element 8713   
 and target element 8599.                                                
 ****************************************
  

 *** NOTE ***                            CP =       1.078   TIME= 04:51:54
 Symmetric Deformable- deformable contact pair identified by real        
 constant set 17 and contact element type 17 has been set up.  The       
 companion pair has real constant set ID 18.  Both pairs should have     
 the same behavior.                                                      
 ANSYS will deactivate the current pair and keep its companion pair,     
 resulting in asymmetric contact.                                        
 Linear contact is defined
 Contact algorithm: Augmented Lagrange method
 Contact detection at: Gauss integration point
 Contact stiffness factor FKN                  10.000    
 The resulting initial contact stiffness      0.23710E+21
 Default penetration tolerance factor FTOLN   0.10000    
 The resulting penetration tolerance          0.12231E-07
 Default opening contact stiffness OPSF will be used.
 Default tangent stiffness factor FKT          1.0000    
 Use constant contact stiffness
 Default Max. friction stress TAUMAX          0.10000E+21
 Average contact surface length               0.16973E-06
 Average contact pair depth                   0.12231E-06
 Default pinball region factor PINB           0.25000    
 The resulting pinball region                 0.30578E-07
 Initial penetration/gap is excluded.
 Bonded contact (always) is defined.

 *** NOTE ***                            CP =       1.078   TIME= 04:51:54
 Max.  Initial penetration 0 was detected between contact element 8848   
 and target element 8949.                                                
 ****************************************
  

 *** NOTE ***                            CP =       1.078   TIME= 04:51:54
 Symmetric Deformable- deformable contact pair identified by real        
 constant set 18 and contact element type 17 has been set up.  The       
 companion pair has real constant set ID 17.  Both pairs should have     
 the same behavior.                                                      
 ANSYS will keep the current pair and deactivate its companion pair,     
 resulting in asymmetric contact.                                        
 Linear contact is defined
 Contact algorithm: Augmented Lagrange method
 Contact detection at: Gauss integration point
 Contact stiffness factor FKN                  10.000    
 The resulting initial contact stiffness      0.23710E+21
 Default penetration tolerance factor FTOLN   0.10000    
 The resulting penetration tolerance          0.26261E-08
 Default opening contact stiffness OPSF will be used.
 Default tangent stiffness factor FKT          1.0000    
 Use constant contact stiffness
 Default Max. friction stress TAUMAX          0.10000E+21
 Average contact surface length               0.62426E-07
 Average contact pair depth                   0.26261E-07
 Default pinball region factor PINB           0.25000    
 The resulting pinball region                 0.65652E-08
 Initial penetration/gap is excluded.
 Bonded contact (always) is defined.

 *** NOTE ***                            CP =       1.078   TIME= 04:51:54
 Max.  Initial penetration 0 was detected between contact element 8905   
 and target element 8794.                                                
 ****************************************
  

 *** NOTE ***                            CP =       1.078   TIME= 04:51:54
 Symmetric Deformable- deformable contact pair identified by real        
 constant set 19 and contact element type 19 has been set up.  The       
 companion pair has real constant set ID 20.  Both pairs should have     
 the same behavior.                                                      
 ANSYS will deactivate the current pair and keep its companion pair,     
 resulting in asymmetric contact.                                        
 Linear contact is defined
 Contact algorithm: Augmented Lagrange method
 Contact detection at: Gauss integration point
 Contact stiffness factor FKN                  10.000    
 The resulting initial contact stiffness      0.28099E+21
 Default penetration tolerance factor FTOLN   0.10000    
 The resulting penetration tolerance          0.10320E-07
 Default opening contact stiffness OPSF will be used.
 Default tangent stiffness factor FKT          1.0000    
 Use constant contact stiffness
 Default Max. friction stress TAUMAX          0.10000E+21
 Average contact surface length               0.15140E-06
 Average contact pair depth                   0.10320E-06
 Default pinball region factor PINB           0.25000    
 The resulting pinball region                 0.25801E-07
 Initial penetration/gap is excluded.
 Bonded contact (always) is defined.

 *** NOTE ***                            CP =       1.078   TIME= 04:51:54
 Max.  Initial penetration 0 was detected between contact element 9042   
 and target element 9170.                                                
 ****************************************
  

 *** NOTE ***                            CP =       1.078   TIME= 04:51:54
 Symmetric Deformable- deformable contact pair identified by real        
 constant set 20 and contact element type 19 has been set up.  The       
 companion pair has real constant set ID 19.  Both pairs should have     
 the same behavior.                                                      
 ANSYS will keep the current pair and deactivate its companion pair,     
 resulting in asymmetric contact.                                        
 Linear contact is defined
 Contact algorithm: Augmented Lagrange method
 Contact detection at: Gauss integration point
 Contact stiffness factor FKN                  10.000    
 The resulting initial contact stiffness      0.28099E+21
 Default penetration tolerance factor FTOLN   0.10000    
 The resulting penetration tolerance          0.26943E-08
 Default opening contact stiffness OPSF will be used.
 Default tangent stiffness factor FKT          1.0000    
 Use constant contact stiffness
 Default Max. friction stress TAUMAX          0.10000E+21
 Average contact surface length               0.75727E-07
 Average contact pair depth                   0.26943E-07
 Default pinball region factor PINB           0.25000    
 The resulting pinball region                 0.67357E-08
 Initial penetration/gap is excluded.
 Bonded contact (always) is defined.

 *** NOTE ***                            CP =       1.078   TIME= 04:51:54
 Max.  Initial penetration 0 was detected between contact element 9101   
 and target element 9003.                                                
 ****************************************
  

 *** NOTE ***                            CP =       1.078   TIME= 04:51:54
 Symmetric Deformable- deformable contact pair identified by real        
 constant set 21 and contact element type 21 has been set up.  The       
 companion pair has real constant set ID 22.  Both pairs should have     
 the same behavior.                                                      
 ANSYS will deactivate the current pair and keep its companion pair,     
 resulting in asymmetric contact.                                        
 Linear contact is defined
 Contact algorithm: Augmented Lagrange method
 Contact detection at: Gauss integration point
 Contact stiffness factor FKN                  10.000    
 The resulting initial contact stiffness      0.25728E+21
 Default penetration tolerance factor FTOLN   0.10000    
 The resulting penetration tolerance          0.11272E-07
 Default opening contact stiffness OPSF will be used.
 Default tangent stiffness factor FKT          1.0000    
 Use constant contact stiffness
 Default Max. friction stress TAUMAX          0.10000E+21
 Average contact surface length               0.15517E-06
 Average contact pair depth                   0.11272E-06
 Default pinball region factor PINB           0.25000    
 The resulting pinball region                 0.28179E-07
 Initial penetration/gap is excluded.
 Bonded contact (always) is defined.

 *** NOTE ***                            CP =       1.078   TIME= 04:51:54
 Max.  Initial penetration 0 was detected between contact element 9259   
 and target element 9388.                                                
 ****************************************
  

 *** NOTE ***                            CP =       1.078   TIME= 04:51:54
 Symmetric Deformable- deformable contact pair identified by real        
 constant set 22 and contact element type 21 has been set up.  The       
 companion pair has real constant set ID 21.  Both pairs should have     
 the same behavior.                                                      
 ANSYS will keep the current pair and deactivate its companion pair,     
 resulting in asymmetric contact.                                        
 Linear contact is defined
 Contact algorithm: Augmented Lagrange method
 Contact detection at: Gauss integration point
 Contact stiffness factor FKN                  10.000    
 The resulting initial contact stiffness      0.25728E+21
 Default penetration tolerance factor FTOLN   0.10000    
 The resulting penetration tolerance          0.26962E-08
 Default opening contact stiffness OPSF will be used.
 Default tangent stiffness factor FKT          1.0000    
 Use constant contact stiffness
 Default Max. friction stress TAUMAX          0.10000E+21
 Average contact surface length               0.74068E-07
 Average contact pair depth                   0.26962E-07
 Default pinball region factor PINB           0.25000    
 The resulting pinball region                 0.67405E-08
 Initial penetration/gap is excluded.
 Bonded contact (always) is defined.

 *** NOTE ***                            CP =       1.078   TIME= 04:51:54
 Max.  Initial penetration 0 was detected between contact element 9311   
 and target element 9209.                                                
 ****************************************
  

 *** NOTE ***                            CP =       1.078   TIME= 04:51:54
 Symmetric Deformable- deformable contact pair identified by real        
 constant set 23 and contact element type 23 has been set up.  The       
 companion pair has real constant set ID 24.  Both pairs should have     
 the same behavior.                                                      
 ANSYS will deactivate the current pair and keep its companion pair,     
 resulting in asymmetric contact.                                        
 Linear contact is defined
 Contact algorithm: Augmented Lagrange method
 Contact detection at: Gauss integration point
 Contact stiffness factor FKN                  10.000    
 The resulting initial contact stiffness      0.26268E+21
 Default penetration tolerance factor FTOLN   0.10000    
 The resulting penetration tolerance          0.11040E-07
 Default opening contact stiffness OPSF will be used.
 Default tangent stiffness factor FKT          1.0000    
 Use constant contact stiffness
 Default Max. friction stress TAUMAX          0.10000E+21
 Average contact surface length               0.16443E-06
 Average contact pair depth                   0.11040E-06
 Default pinball region factor PINB           0.25000    
 The resulting pinball region                 0.27600E-07
 Initial penetration/gap is excluded.
 Bonded contact (always) is defined.

 *** NOTE ***                            CP =       1.078   TIME= 04:51:54
 Max.  Initial penetration 0 was detected between contact element 9466   
 and target element 9600.                                                
 ****************************************
  

 *** NOTE ***                            CP =       1.078   TIME= 04:51:54
 Symmetric Deformable- deformable contact pair identified by real        
 constant set 24 and contact element type 23 has been set up.  The       
 companion pair has real constant set ID 23.  Both pairs should have     
 the same behavior.                                                      
 ANSYS will keep the current pair and deactivate its companion pair,     
 resulting in asymmetric contact.                                        
 Linear contact is defined
 Contact algorithm: Augmented Lagrange method
 Contact detection at: Gauss integration point
 Contact stiffness factor FKN                  10.000    
 The resulting initial contact stiffness      0.26268E+21
 Default penetration tolerance factor FTOLN   0.10000    
 The resulting penetration tolerance          0.26111E-08
 Default opening contact stiffness OPSF will be used.
 Default tangent stiffness factor FKT          1.0000    
 Use constant contact stiffness
 Default Max. friction stress TAUMAX          0.10000E+21
 Average contact surface length               0.72915E-07
 Average contact pair depth                   0.26111E-07
 Default pinball region factor PINB           0.25000    
 The resulting pinball region                 0.65279E-08
 Initial penetration/gap is excluded.
 Bonded contact (always) is defined.

 *** NOTE ***                            CP =       1.078   TIME= 04:51:54
 Max.  Initial penetration 0 was detected between contact element 9513   
 and target element 9460.                                                
 ****************************************
  

 *** NOTE ***                            CP =       1.078   TIME= 04:51:54
 Symmetric Deformable- deformable contact pair identified by real        
 constant set 25 and contact element type 25 has been set up.  The       
 companion pair has real constant set ID 26.  Both pairs should have     
 the same behavior.                                                      
 ANSYS will deactivate the current pair and keep its companion pair,     
 resulting in asymmetric contact.                                        
 Linear contact is defined
 Contact algorithm: Augmented Lagrange method
 Contact detection at: Gauss integration point
 Contact stiffness factor FKN                  10.000    
 The resulting initial contact stiffness      0.27861E+21
 Default penetration tolerance factor FTOLN   0.10000    
 The resulting penetration tolerance          0.10409E-07
 Default opening contact stiffness OPSF will be used.
 Default tangent stiffness factor FKT          1.0000    
 Use constant contact stiffness
 Default Max. friction stress TAUMAX          0.10000E+21
 Average contact surface length               0.15373E-06
 Average contact pair depth                   0.10409E-06
 Default pinball region factor PINB           0.25000    
 The resulting pinball region                 0.26022E-07
 Initial penetration/gap is excluded.
 Bonded contact (always) is defined.

 *** NOTE ***                            CP =       1.078   TIME= 04:51:54
 Max.  Initial penetration 0 was detected between contact element 9681   
 and target element 9826.                                                
 ****************************************
  

 *** NOTE ***                            CP =       1.078   TIME= 04:51:54
 Symmetric Deformable- deformable contact pair identified by real        
 constant set 26 and contact element type 25 has been set up.  The       
 companion pair has real constant set ID 25.  Both pairs should have     
 the same behavior.                                                      
 ANSYS will keep the current pair and deactivate its companion pair,     
 resulting in asymmetric contact.                                        
 Linear contact is defined
 Contact algorithm: Augmented Lagrange method
 Contact detection at: Gauss integration point
 Contact stiffness factor FKN                  10.000    
 The resulting initial contact stiffness      0.27861E+21
 Default penetration tolerance factor FTOLN   0.10000    
 The resulting penetration tolerance          0.25938E-08
 Default opening contact stiffness OPSF will be used.
 Default tangent stiffness factor FKT          1.0000    
 Use constant contact stiffness
 Default Max. friction stress TAUMAX          0.10000E+21
 Average contact surface length               0.74428E-07
 Average contact pair depth                   0.25938E-07
 Default pinball region factor PINB           0.25000    
 The resulting pinball region                 0.64846E-08
 Initial penetration/gap is excluded.
 Bonded contact (always) is defined.

 *** NOTE ***                            CP =       1.078   TIME= 04:51:54
 Max.  Initial penetration 0 was detected between contact element 9739   
 and target element 9640.                                                
 ****************************************
  

 *** NOTE ***                            CP =       1.078   TIME= 04:51:54
 Symmetric Deformable- deformable contact pair identified by real        
 constant set 27 and contact element type 27 has been set up.  The       
 companion pair has real constant set ID 28.  Both pairs should have     
 the same behavior.                                                      
 ANSYS will keep the current pair and deactivate its companion pair,     
 resulting in asymmetric contact.                                        
 Linear contact is defined
 Contact algorithm: Augmented Lagrange method
 Contact detection at: Gauss integration point
 Contact stiffness factor FKN                  10.000    
 The resulting initial contact stiffness      0.26838E+21
 Default penetration tolerance factor FTOLN   0.10000    
 The resulting penetration tolerance          0.10806E-07
 Default opening contact stiffness OPSF will be used.
 Default tangent stiffness factor FKT          1.0000    
 Use constant contact stiffness
 Default Max. friction stress TAUMAX          0.10000E+21
 Average contact surface length               0.26871E-06
 Average contact pair depth                   0.10806E-06
 Default pinball region factor PINB           0.25000    
 The resulting pinball region                 0.27014E-07
 Initial penetration/gap is excluded.
 Bonded contact (always) is defined.

 *** NOTE ***                            CP =       1.078   TIME= 04:51:54
 Max.  Initial penetration 3.97046694E-23 was detected between contact   
 element 9871 and target element 9926.                                   
 ****************************************
  

 *** NOTE ***                            CP =       1.078   TIME= 04:51:54
 Symmetric Deformable- deformable contact pair identified by real        
 constant set 28 and contact element type 27 has been set up.  The       
 companion pair has real constant set ID 27.  Both pairs should have     
 the same behavior.                                                      
 ANSYS will deactivate the current pair and keep its companion pair,     
 resulting in asymmetric contact.                                        
 Linear contact is defined
 Contact algorithm: Augmented Lagrange method
 Contact detection at: Gauss integration point
 Contact stiffness factor FKN                  10.000    
 The resulting initial contact stiffness      0.26838E+21
 Default penetration tolerance factor FTOLN   0.10000    
 The resulting penetration tolerance          0.18000E-07
 Default opening contact stiffness OPSF will be used.
 Default tangent stiffness factor FKT          1.0000    
 Use constant contact stiffness
 Default Max. friction stress TAUMAX          0.10000E+21
 Average contact surface length               0.60000E-06
 Average contact pair depth                   0.18000E-06
 Default pinball region factor PINB           0.25000    
 The resulting pinball region                 0.45000E-07
 Initial penetration/gap is excluded.
 Bonded contact (always) is defined.

 *** NOTE ***                            CP =       1.078   TIME= 04:51:54
 Max.  Initial penetration 1.32348898E-23 was detected between contact   
 element 9907 and target element 9866.                                   
 ****************************************
  

 *** WARNING ***                         CP =       1.078   TIME= 04:51:54
 Maximum contact stiffness 2.809944716E+20 is too big which can cause an 
 accuracy problem, you may scale the force units in the model.           

 *** WARNING ***                         CP =       1.078   TIME= 04:51:54
 Minimum contact depth 2.443885472E-08 is too small which can cause an   
 accuracy problem, you may scale the length units in the model.          
  
  

  
  
     D I S T R I B U T E D   D O M A I N   D E C O M P O S E R
  
  ...Number of elements: 6276
  ...Number of nodes:    11350
  ...Decompose to 2 CPU domains
  ...Element load balance ratio =     1.009


                      L O A D   S T E P   O P T I O N S

   LOAD STEP NUMBER. . . . . . . . . . . . . . . .     1
   THERMAL STRAINS INCLUDED IN THE LOAD VECTOR . .   YES
   PRINT OUTPUT CONTROLS . . . . . . . . . . . . .NO PRINTOUT
   DATABASE OUTPUT CONTROLS
      ITEM     FREQUENCY   COMPONENT
       ALL       NONE               
      NSOL        ALL               
      ETMP        ALL               


 *** NOTE ***                            CP =       1.266   TIME= 04:51:54
 Symmetric Deformable- deformable contact pair identified by real        
 constant set 13 and contact element type 13 has been set up.  The       
 companion pair has real constant set ID 14.  Both pairs should have     
 the same behavior.                                                      
 ANSYS will deactivate the current pair and keep its companion pair,     
 resulting in asymmetric contact.                                        
 Linear contact is defined
 Contact algorithm: Augmented Lagrange method
 Contact detection at: Gauss integration point
 Contact stiffness factor FKN                  10.000    
 The resulting initial contact stiffness      0.26104E+21
 Default penetration tolerance factor FTOLN   0.10000    
 The resulting penetration tolerance          0.11109E-07
 Default opening contact stiffness OPSF will be used.
 Default tangent stiffness factor FKT          1.0000    
 Use constant contact stiffness
 Default Max. friction stress TAUMAX          0.10000E+21
 Average contact surface length               0.16438E-06
 Average contact pair depth                   0.11109E-06
 Default pinball region factor PINB           0.25000    
 The resulting pinball region                 0.27773E-07
 Initial penetration/gap is excluded.
 Bonded contact (always) is defined.

 *** NOTE ***                            CP =       1.266   TIME= 04:51:54
 Max.  Initial penetration 0 was detected between contact element 8458   
 and target element 8560.                                                
 ****************************************
  

 *** NOTE ***                            CP =       1.266   TIME= 04:51:54
 Symmetric Deformable- deformable contact pair identified by real        
 constant set 14 and contact element type 13 has been set up.  The       
 companion pair has real constant set ID 13.  Both pairs should have     
 the same behavior.                                                      
 ANSYS will keep the current pair and deactivate its companion pair,     
 resulting in asymmetric contact.                                        
 Linear contact is defined
 Contact algorithm: Augmented Lagrange method
 Contact detection at: Gauss integration point
 Contact stiffness factor FKN                  10.000    
 The resulting initial contact stiffness      0.26104E+21
 Default penetration tolerance factor FTOLN   0.10000    
 The resulting penetration tolerance          0.24439E-08
 Default opening contact stiffness OPSF will be used.
 Default tangent stiffness factor FKT          1.0000    
 Use constant contact stiffness
 Default Max. friction stress TAUMAX          0.10000E+21
 Average contact surface length               0.62426E-07
 Average contact pair depth                   0.24439E-07
 Default pinball region factor PINB           0.25000    
 The resulting pinball region                 0.61097E-08
 Initial penetration/gap is excluded.
 Bonded contact (always) is defined.

 *** NOTE ***                            CP =       1.266   TIME= 04:51:54
 Max.  Initial penetration 0 was detected between contact element 8517   
 and target element 8406.                                                
 ****************************************
  

 *** NOTE ***                            CP =       1.266   TIME= 04:51:54
 Symmetric Deformable- deformable contact pair identified by real        
 constant set 15 and contact element type 15 has been set up.  The       
 companion pair has real constant set ID 16.  Both pairs should have     
 the same behavior.                                                      
 ANSYS will deactivate the current pair and keep its companion pair,     
 resulting in asymmetric contact.                                        
 Linear contact is defined
 Contact algorithm: Augmented Lagrange method
 Contact detection at: Gauss integration point
 Contact stiffness factor FKN                  10.000    
 The resulting initial contact stiffness      0.23942E+21
 Default penetration tolerance factor FTOLN   0.10000    
 The resulting penetration tolerance          0.12112E-07
 Default opening contact stiffness OPSF will be used.
 Default tangent stiffness factor FKT          1.0000    
 Use constant contact stiffness
 Default Max. friction stress TAUMAX          0.10000E+21
 Average contact surface length               0.16528E-06
 Average contact pair depth                   0.12112E-06
 Default pinball region factor PINB           0.25000    
 The resulting pinball region                 0.30281E-07
 Initial penetration/gap is excluded.
 Bonded contact (always) is defined.

 *** NOTE ***                            CP =       1.266   TIME= 04:51:54
 Max.  Initial penetration 0 was detected between contact element 8655   
 and target element 8785.                                                
 ****************************************
  

 *** NOTE ***                            CP =       1.266   TIME= 04:51:54
 Symmetric Deformable- deformable contact pair identified by real        
 constant set 16 and contact element type 15 has been set up.  The       
 companion pair has real constant set ID 15.  Both pairs should have     
 the same behavior.                                                      
 ANSYS will keep the current pair and deactivate its companion pair,     
 resulting in asymmetric contact.                                        
 Linear contact is defined
 Contact algorithm: Augmented Lagrange method
 Contact detection at: Gauss integration point
 Contact stiffness factor FKN                  10.000    
 The resulting initial contact stiffness      0.23942E+21
 Default penetration tolerance factor FTOLN   0.10000    
 The resulting penetration tolerance          0.26261E-08
 Default opening contact stiffness OPSF will be used.
 Default tangent stiffness factor FKT          1.0000    
 Use constant contact stiffness
 Default Max. friction stress TAUMAX          0.10000E+21
 Average contact surface length               0.62426E-07
 Average contact pair depth                   0.26261E-07
 Default pinball region factor PINB           0.25000    
 The resulting pinball region                 0.65652E-08
 Initial penetration/gap is excluded.
 Bonded contact (always) is defined.

 *** NOTE ***                            CP =       1.266   TIME= 04:51:54
 Max.  Initial penetration 0 was detected between contact element 8713   
 and target element 8599.                                                
 ****************************************
  

 *** NOTE ***                            CP =       1.266   TIME= 04:51:54
 Symmetric Deformable- deformable contact pair identified by real        
 constant set 19 and contact element type 19 has been set up.  The       
 companion pair has real constant set ID 20.  Both pairs should have     
 the same behavior.                                                      
 ANSYS will deactivate the current pair and keep its companion pair,     
 resulting in asymmetric contact.                                        
 Linear contact is defined
 Contact algorithm: Augmented Lagrange method
 Contact detection at: Gauss integration point
 Contact stiffness factor FKN                  10.000    
 The resulting initial contact stiffness      0.28099E+21
 Default penetration tolerance factor FTOLN   0.10000    
 The resulting penetration tolerance          0.10320E-07
 Default opening contact stiffness OPSF will be used.
 Default tangent stiffness factor FKT          1.0000    
 Use constant contact stiffness
 Default Max. friction stress TAUMAX          0.10000E+21
 Average contact surface length               0.15140E-06
 Average contact pair depth                   0.10320E-06
 Default pinball region factor PINB           0.25000    
 The resulting pinball region                 0.25801E-07
 Initial penetration/gap is excluded.
 Bonded contact (always) is defined.

 *** NOTE ***                            CP =       1.266   TIME= 04:51:54
 Max.  Initial penetration 0 was detected between contact element 9042   
 and target element 9170.                                                
 ****************************************
  

 *** NOTE ***                            CP =       1.266   TIME= 04:51:54
 Symmetric Deformable- deformable contact pair identified by real        
 constant set 20 and contact element type 19 has been set up.  The       
 companion pair has real constant set ID 19.  Both pairs should have     
 the same behavior.                                                      
 ANSYS will keep the current pair and deactivate its companion pair,     
 resulting in asymmetric contact.                                        
 Linear contact is defined
 Contact algorithm: Augmented Lagrange method
 Contact detection at: Gauss integration point
 Contact stiffness factor FKN                  10.000    
 The resulting initial contact stiffness      0.28099E+21
 Default penetration tolerance factor FTOLN   0.10000    
 The resulting penetration tolerance          0.26943E-08
 Default opening contact stiffness OPSF will be used.
 Default tangent stiffness factor FKT          1.0000    
 Use constant contact stiffness
 Default Max. friction stress TAUMAX          0.10000E+21
 Average contact surface length               0.75727E-07
 Average contact pair depth                   0.26943E-07
 Default pinball region factor PINB           0.25000    
 The resulting pinball region                 0.67357E-08
 Initial penetration/gap is excluded.
 Bonded contact (always) is defined.

 *** NOTE ***                            CP =       1.266   TIME= 04:51:54
 Max.  Initial penetration 0 was detected between contact element 9101   
 and target element 9003.                                                
 ****************************************
  

 *** NOTE ***                            CP =       1.266   TIME= 04:51:54
 Symmetric Deformable- deformable contact pair identified by real        
 constant set 23 and contact element type 23 has been set up.  The       
 companion pair has real constant set ID 24.  Both pairs should have     
 the same behavior.                                                      
 ANSYS will deactivate the current pair and keep its companion pair,     
 resulting in asymmetric contact.                                        
 Linear contact is defined
 Contact algorithm: Augmented Lagrange method
 Contact detection at: Gauss integration point
 Contact stiffness factor FKN                  10.000    
 The resulting initial contact stiffness      0.26268E+21
 Default penetration tolerance factor FTOLN   0.10000    
 The resulting penetration tolerance          0.11040E-07
 Default opening contact stiffness OPSF will be used.
 Default tangent stiffness factor FKT          1.0000    
 Use constant contact stiffness
 Default Max. friction stress TAUMAX          0.10000E+21
 Average contact surface length               0.16443E-06
 Average contact pair depth                   0.11040E-06
 Default pinball region factor PINB           0.25000    
 The resulting pinball region                 0.27600E-07
 Initial penetration/gap is excluded.
 Bonded contact (always) is defined.

 *** NOTE ***                            CP =       1.266   TIME= 04:51:54
 Max.  Initial penetration 0 was detected between contact element 9466   
 and target element 9600.                                                
 ****************************************
  

 *** NOTE ***                            CP =       1.266   TIME= 04:51:54
 Symmetric Deformable- deformable contact pair identified by real        
 constant set 24 and contact element type 23 has been set up.  The       
 companion pair has real constant set ID 23.  Both pairs should have     
 the same behavior.                                                      
 ANSYS will keep the current pair and deactivate its companion pair,     
 resulting in asymmetric contact.                                        
 Linear contact is defined
 Contact algorithm: Augmented Lagrange method
 Contact detection at: Gauss integration point
 Contact stiffness factor FKN                  10.000    
 The resulting initial contact stiffness      0.26268E+21
 Default penetration tolerance factor FTOLN   0.10000    
 The resulting penetration tolerance          0.26111E-08
 Default opening contact stiffness OPSF will be used.
 Default tangent stiffness factor FKT          1.0000    
 Use constant contact stiffness
 Default Max. friction stress TAUMAX          0.10000E+21
 Average contact surface length               0.72915E-07
 Average contact pair depth                   0.26111E-07
 Default pinball region factor PINB           0.25000    
 The resulting pinball region                 0.65279E-08
 Initial penetration/gap is excluded.
 Bonded contact (always) is defined.

 *** NOTE ***                            CP =       1.266   TIME= 04:51:54
 Max.  Initial penetration 0 was detected between contact element 9513   
 and target element 9460.                                                
 ****************************************
  


                         ***********  PRECISE MASS SUMMARY  ***********

   TOTAL RIGID BODY MASS MATRIX ABOUT ORIGIN
               Translational mass               |   Coupled translational/rotational mass
        0.81015E-13    0.0000        0.0000     |     0.0000      -0.93809E-20   0.26331E-35
         0.0000       0.81015E-13    0.0000     |    0.93809E-20    0.0000       0.10119E-33
         0.0000        0.0000       0.81015E-13 |    0.11285E-35  -0.99682E-34    0.0000    
     ------------------------------------------ | ------------------------------------------
                                                |         Rotational mass (inertia)
                                                |    0.22646E-24   0.35807E-32  -0.18351E-40
                                                |    0.35807E-32   0.22646E-24  -0.16152E-39
                                                |   -0.18363E-40  -0.16161E-39   0.44939E-24

   TOTAL MASS = 0.81015E-13
     The mass principal axes coincide with the global Cartesian axes

   CENTER OF MASS (X,Y,Z)=   0.12490E-20  -0.32502E-22  -0.11579E-06

   TOTAL INERTIA ABOUT CENTER OF MASS
        0.22537E-24   0.35807E-32  -0.30068E-40
        0.35807E-32   0.22537E-24  -0.16121E-39
       -0.30068E-40  -0.16121E-39   0.44939E-24
     The inertia principal axes coincide with the global Cartesian axes


  *** MASS SUMMARY BY ELEMENT TYPE ***

  TYPE      MASS
     1  0.109177E-13
     2  0.764280E-16
     3  0.764280E-16
     4  0.764280E-16
     5  0.764280E-16
     6  0.778747E-16
     7  0.778747E-16
     8  0.778747E-16
     9  0.778747E-16
    10  0.694800E-13

 Range of element maximum matrix coefficients in global coordinates
 Maximum = 4676558.81 at element 9880.                                   
 Minimum = 6531.01815 at element 3550.                                   

   *** ELEMENT MATRIX FORMULATION TIMES
     TYPE    NUMBER   ENAME      TOTAL CP  AVE CP

        1      3308  SOLID187      0.281   0.000085
        2        54  SOLID186      0.000   0.000000
        3        54  SOLID186      0.031   0.000579
        4        48  SOLID186      0.047   0.000977
        5        48  SOLID186      0.016   0.000326
        6       223  SOLID187      0.062   0.000280
        7       230  SOLID187      0.016   0.000068
        8       242  SOLID187      0.031   0.000129
        9       243  SOLID187      0.062   0.000257
       10       100  SOLID186      0.016   0.000156
       11        99  CONTA174      0.031   0.000316
       12        99  TARGE170      0.000   0.000000
       13        98  CONTA174      0.016   0.000159
       14        98  TARGE170      0.000   0.000000
       15        98  CONTA174      0.000   0.000000
       16        98  TARGE170      0.016   0.000159
       17        96  CONTA174      0.047   0.000488
       18        96  TARGE170      0.016   0.000163
       19       111  CONTA174      0.016   0.000141
       20       111  TARGE170      0.000   0.000000
       21       107  CONTA174      0.016   0.000146
       22       107  TARGE170      0.000   0.000000
       23       101  CONTA174      0.031   0.000309
       24       101  TARGE170      0.000   0.000000
       25       113  CONTA174      0.047   0.000415
       26       113  TARGE170      0.000   0.000000
       27        40  CONTA174      0.016   0.000391
       28        40  TARGE170      0.000   0.000000
 Time at end of element matrix formulation CP = 1.75.                    

  BLOCK LANCZOS CALCULATION OF UP TO     6 EIGENVECTORS.
  NUMBER OF EQUATIONS              =        33027
  MAXIMUM WAVEFRONT                =          369
  MAXIMUM MODES STORED             =            6
  MINIMUM EIGENVALUE               =  0.00000E+00
  MAXIMUM EIGENVALUE               =  0.10000E+31


  Local memory allocated for solver              =     55.258 MB
  Local memory required for in-core solution     =     52.695 MB
  Local memory required for out-of-core solution =     22.131 MB

  Total memory allocated for solver              =    112.882 MB
  Total memory required for in-core solution     =    107.648 MB
  Total memory required for out-of-core solution =     44.506 MB

 *** NOTE ***                            CP =       3.406   TIME= 04:51:57
 The Distributed Sparse Matrix Solver used by the Block Lanczos          
 eigensolver is currently running in the in-core memory mode.  This      
 memory mode uses the most amount of memory in order to avoid using the  
 hard drive as much as possible, which most often results in the         
 fastest solution time.  This mode is recommended if enough physical     
 memory is present to accommodate all of the solver data.                

 *** ANSYS - ENGINEERING ANALYSIS SYSTEM  RELEASE 2020 R1          20.1     ***
 DISTRIBUTED ANSYS Mechanical Enterprise                       

 20120530  VERSION=WINDOWS x64   04:51:58  APR 05, 2020 CP=      4.312

 relay--Modal (C5)                                                             



 *** FREQUENCIES FROM BLOCK LANCZOS ITERATION ***

  MODE    FREQUENCY (HERTZ)      


    1     7917856.175482    
    2     13142825.15255    
    3     13156895.16948    
    4     61019607.36048    
    5     61158776.93511    
    6     61247670.67601    

 *** ANSYS - ENGINEERING ANALYSIS SYSTEM  RELEASE 2020 R1          20.1     ***
 DISTRIBUTED ANSYS Mechanical Enterprise                       

 20120530  VERSION=WINDOWS x64   04:51:58  APR 05, 2020 CP=      4.359

 relay--Modal (C5)                                                             





          ***** PARTICIPATION FACTOR CALCULATION *****  X  DIRECTION
                                                                                  CUMULATIVE     RATIO EFF.MASS
  MODE   FREQUENCY       PERIOD      PARTIC.FACTOR     RATIO    EFFECTIVE MASS   MASS FRACTION   TO TOTAL MASS
     1    0.791786E+07   0.12630E-06   0.26129E-10    0.000280    0.682721E-21    0.775715E-07    0.842710E-08
     2    0.131428E+08   0.76087E-07   0.66816E-09    0.007150    0.446438E-18    0.508023E-04    0.551056E-05
     3    0.131569E+08   0.76006E-07  -0.68334E-09    0.007312    0.466955E-18    0.103858E-03    0.576381E-05
     4    0.610196E+08   0.16388E-07   0.93454E-07    1.000000    0.873360E-14    0.992425        0.107802    
     5    0.611588E+08   0.16351E-07   0.66338E-09    0.007099    0.440077E-18    0.992475        0.543205E-05
     6    0.612477E+08   0.16327E-07  -0.81383E-08    0.087084    0.662316E-16     1.00000        0.817523E-03
 -----------------------------------------------------------------------------------------------------------------
   sum                                                            0.880119E-14                    0.108637    
 -----------------------------------------------------------------------------------------------------------------



          ***** PARTICIPATION FACTOR CALCULATION *****  Y  DIRECTION
                                                                                  CUMULATIVE     RATIO EFF.MASS
  MODE   FREQUENCY       PERIOD      PARTIC.FACTOR     RATIO    EFFECTIVE MASS   MASS FRACTION   TO TOTAL MASS
     1    0.791786E+07   0.12630E-06   0.17811E-10    0.000198    0.317241E-21    0.360334E-07    0.391583E-08
     2    0.131428E+08   0.76087E-07   0.66357E-09    0.007372    0.440327E-18    0.500499E-04    0.543513E-05
     3    0.131569E+08   0.76006E-07   0.53114E-09    0.005901    0.282106E-18    0.820926E-04    0.348215E-05
     4    0.610196E+08   0.16388E-07   0.76397E-08    0.084872    0.583649E-16    0.671139E-02    0.720421E-03
     5    0.611588E+08   0.16351E-07   0.25345E-07    0.281571    0.642392E-15    0.796766E-01    0.792930E-02
     6    0.612477E+08   0.16327E-07   0.90014E-07    1.000000    0.810261E-14     1.00000        0.100014    
 -----------------------------------------------------------------------------------------------------------------
   sum                                                            0.880409E-14                    0.108672    
 -----------------------------------------------------------------------------------------------------------------



          ***** PARTICIPATION FACTOR CALCULATION *****  Z  DIRECTION
                                                                                  CUMULATIVE     RATIO EFF.MASS
  MODE   FREQUENCY       PERIOD      PARTIC.FACTOR     RATIO    EFFECTIVE MASS   MASS FRACTION   TO TOTAL MASS
     1    0.791786E+07   0.12630E-06   0.96568E-07    1.000000    0.932532E-14    0.999999        0.115106    
     2    0.131428E+08   0.76087E-07   0.52975E-10    0.000549    0.280636E-20    0.999999        0.346400E-07
     3    0.131569E+08   0.76006E-07  -0.12327E-10    0.000128    0.151967E-21    0.999999        0.187579E-08
     4    0.610196E+08   0.16388E-07  -0.69040E-10    0.000715    0.476653E-20     1.00000        0.588352E-07
     5    0.611588E+08   0.16351E-07   0.30652E-10    0.000317    0.939523E-21     1.00000        0.115969E-07
     6    0.612477E+08   0.16327E-07  -0.51420E-10    0.000532    0.264407E-20     1.00000        0.326368E-07
 -----------------------------------------------------------------------------------------------------------------
   sum                                                            0.932533E-14                    0.115106    
 -----------------------------------------------------------------------------------------------------------------



          ***** PARTICIPATION FACTOR CALCULATION *****ROTX DIRECTION
                                                                                  CUMULATIVE     RATIO EFF.MASS
  MODE   FREQUENCY       PERIOD      PARTIC.FACTOR     RATIO    EFFECTIVE MASS   MASS FRACTION   TO TOTAL MASS
     1    0.791786E+07   0.12630E-06    0.0000        0.000000     0.00000         0.00000         0.00000    
     2    0.131428E+08   0.76087E-07   0.84103E-13    1.000000    0.707328E-26    0.818953        0.312340E-01
     3    0.131569E+08   0.76006E-07   0.38469E-13    0.457408    0.147989E-26    0.990296        0.653483E-02
     4    0.610196E+08   0.16388E-07    0.0000        0.000000     0.00000        0.990296         0.00000    
     5    0.611588E+08   0.16351E-07    0.0000        0.000000     0.00000        0.990296         0.00000    
     6    0.612477E+08   0.16327E-07  -0.87830E-14    0.104432    0.771416E-28    0.999227        0.340639E-03
 -----------------------------------------------------------------------------------------------------------------
   sum                                                            0.863698E-26                    0.381389E-01
 -----------------------------------------------------------------------------------------------------------------



          ***** PARTICIPATION FACTOR CALCULATION *****ROTY DIRECTION
                                                                                  CUMULATIVE     RATIO EFF.MASS
  MODE   FREQUENCY       PERIOD      PARTIC.FACTOR     RATIO    EFFECTIVE MASS   MASS FRACTION   TO TOTAL MASS
     1    0.791786E+07   0.12630E-06    0.0000        0.000000     0.00000         0.00000         0.00000    
     2    0.131428E+08   0.76087E-07  -0.38449E-13    0.457164    0.147834E-26    0.171137        0.652803E-02
     3    0.131569E+08   0.76006E-07   0.84104E-13    1.000000    0.707347E-26    0.989978        0.312348E-01
     4    0.610196E+08   0.16388E-07   0.92891E-14    0.110448    0.862874E-28    0.999967        0.381025E-03
     5    0.611588E+08   0.16351E-07    0.0000        0.000000     0.00000        0.999967         0.00000    
     6    0.612477E+08   0.16327E-07    0.0000        0.000000     0.00000        0.999967         0.00000    
 -----------------------------------------------------------------------------------------------------------------
   sum                                                            0.863839E-26                    0.381451E-01
 -----------------------------------------------------------------------------------------------------------------



          ***** PARTICIPATION FACTOR CALCULATION *****ROTZ DIRECTION
                                                                                  CUMULATIVE     RATIO EFF.MASS
  MODE   FREQUENCY       PERIOD      PARTIC.FACTOR     RATIO    EFFECTIVE MASS   MASS FRACTION   TO TOTAL MASS
     1    0.791786E+07   0.12630E-06    0.0000        0.000000     0.00000         0.00000         0.00000    
     2    0.131428E+08   0.76087E-07    0.0000        0.000000     0.00000         0.00000         0.00000    
     3    0.131569E+08   0.76006E-07    0.0000        0.000000     0.00000         0.00000         0.00000    
     4    0.610196E+08   0.16388E-07    0.0000        0.000000     0.00000         0.00000         0.00000    
     5    0.611588E+08   0.16351E-07    0.0000        0.000000     0.00000         0.00000         0.00000    
     6    0.612477E+08   0.16327E-07    0.0000        0.000000     0.00000         0.00000         0.00000    





 *** NOTE ***                            CP =       4.359   TIME= 04:51:58
 The modes requested are mass normalized (Nrmkey on MODOPT).  However,   
 the modal masses and kinetic energies below are calculated with unit    
 normalized modes.                                                       

        ***** MODAL MASSES, KINETIC ENERGIES, AND TRANSLATIONAL EFFECTIVE MASSES SUMMARY *****

                                                                         EFFECTIVE MASS
  MODE  FREQUENCY   MODAL MASS     KENE      |      X-DIR      RATIO%   Y-DIR      RATIO%   Z-DIR      RATIO% 
     1  0.7918E+07  0.8421E-14   10.42       |    0.6827E-21    0.00  0.3172E-21    0.00  0.9325E-14   11.51
     2  0.1314E+08  0.1813E-14   6.181       |    0.4464E-18    0.00  0.4403E-18    0.00  0.2806E-20    0.00
     3  0.1316E+08  0.1814E-14   6.198       |    0.4670E-18    0.00  0.2821E-18    0.00  0.1520E-21    0.00
     4  0.6102E+08  0.8517E-14   626.0       |    0.8734E-14   10.78  0.5836E-16    0.07  0.4767E-20    0.00
     5  0.6116E+08  0.1538E-14   113.6       |    0.4401E-18    0.00  0.6424E-15    0.79  0.9395E-21    0.00
     6  0.6125E+08  0.8709E-14   644.9       |    0.6623E-16    0.08  0.8103E-14   10.00  0.2644E-20    0.00
 --------------------------------------------------------------------------------------------------------------
   sum                                       |    0.8801E-14   10.86  0.8804E-14   10.87  0.9325E-14   11.51
 --------------------------------------------------------------------------------------------------------------


 *** ANSYS BINARY FILE STATISTICS
  BUFFER SIZE USED= 16384
        3.938 MB WRITTEN ON ELEMENT SAVED DATA FILE: file0.esav
       10.875 MB WRITTEN ON ASSEMBLED MATRIX FILE: file0.full
        1.125 MB WRITTEN ON MODAL MATRIX FILE: file0.mode
        2.000 MB WRITTEN ON RESULTS FILE: file0.rst
 *************** Write FE CONNECTORS *********

 WRITE OUT CONSTRAINT EQUATIONS TO FILE= file.ce                                                                                                                                                                                                                                                             

 *GET  _NMODALSOLPROC  FROM  ACTI  ITEM=NUMC       VALUE=  2.00000000    

 FINISH SOLUTION PROCESSING


 ***** ROUTINE COMPLETED *****  CP =         4.531



 PRINTOUT RESUMED BY /GOP

 *GET  _WALLASOL  FROM  ACTI  ITEM=TIME WALL  VALUE=  4.86638889    

 *** ANSYS - ENGINEERING ANALYSIS SYSTEM  RELEASE 2020 R1          20.1     ***
 DISTRIBUTED ANSYS Mechanical Enterprise                       

 20120530  VERSION=WINDOWS x64   04:51:59  APR 05, 2020 CP=      4.531

 relay--Modal (C5)                                                             



          ***** ANSYS RESULTS INTERPRETATION (POST1) *****

 *** NOTE ***                            CP =       4.531   TIME= 04:51:59
 Reading results into the database (SET command) will update the current 
 displacement and force boundary conditions in the database with the     
 values from the results file for that load set.  Note that any          
 subsequent solutions will use these values unless action is taken to    
 either SAVE the current values or not overwrite them (/EXIT,NOSAVE).    

 PRINTOUT RESUMED BY /GOP

 Set Encoding of XML File to:ISO-8859-1

 Set Output of XML File to:
     PARM,     ,     ,     ,     ,     ,     ,     ,     ,     ,     ,     ,
         ,     ,     ,     ,     ,     ,     ,

 DATABASE WRITTEN ON FILE  parm.xml                                                                                                                                                                                                                                                            

 EXIT THE ANSYS POST1 DATABASE PROCESSOR


 ***** ROUTINE COMPLETED *****  CP =         4.578



 PRINTOUT RESUMED BY /GOP

 *GET  _WALLDONE  FROM  ACTI  ITEM=TIME WALL  VALUE=  4.86638889    

 PARAMETER _PREPTIME =     0.000000000    

 PARAMETER _SOLVTIME =     5.000000000    

 PARAMETER _POSTTIME =     0.000000000    

 PARAMETER _TOTALTIM =     5.000000000    

 *GET  _DLBRATIO  FROM  ACTI  ITEM=SOLU DLBR  VALUE=  1.00945798    

 *GET  _COMBTIME  FROM  ACTI  ITEM=SOLU COMB  VALUE= 0.144845300    
 --- Number of total nodes = 11350
 --- Number of total elements = 6276
 --- Element load balance ratio = 1.00945798
 --- Time to combine distributed files = 0.1448453

 EXIT ANSYS WITHOUT SAVING DATABASE


 NUMBER OF WARNING MESSAGES ENCOUNTERED=          3
 NUMBER OF ERROR   MESSAGES ENCOUNTERED=          0

+--------- D I S T R I B U T E D   A N S Y S   S T A T I S T I C S ------------+

Release: 2020 R1            Build: 20.1       Update: UP20191203   Platform: WINDOWS x64 
Date Run: 04/05/2020   Time: 04:51     Process ID: 4188
Operating System: Windows 10  (Build: 18363)

Processor Model: Intel(R) Core(TM) i5-6360U CPU @ 2.00GHz

Compiler: Intel(R) FORTRAN Compiler Version 19.0.0  (Build: 20190206)
          Intel(R) C/C++ Compiler Version 19.0.0  (Build: 20190206)
          Intel(R) Math Kernel Library Version 2019.0.3 Product Build 20190125

Number of machines requested            :    1
Total number of cores available         :    2
Number of physical cores available      :    2
Number of processes requested           :    2
Number of threads per process requested :    1
Total number of cores requested         :    2 (Distributed Memory Parallel)               
MPI Type: INTELMPI
MPI Version: Intel(R) MPI Library 2018 Update 3 for Windows* OS


GPU Acceleration: Not Requested

Job Name: file0
Input File: dummy.dat

  Core                Machine Name   Working Directory
 -----------------------------------------------------
     0             DESKTOP-H2RNGL6   C:\Users\Akash Levy\Documents\NEM-Relay-CAD\_ProjectScratch\Scr667F
     1             DESKTOP-H2RNGL6   C:\Users\Akash Levy\Documents\NEM-Relay-CAD\_ProjectScratch\Scr667F
 
Latency time from master to core     1 =    3.195 microseconds
 
Communication speed from master to core     1 =  1002.16 MB/sec

Total CPU time for main thread                    :        4.5 seconds
Total CPU time summed for all threads             :        4.6 seconds

Elapsed time spent obtaining a license            :        1.0 seconds
Elapsed time spent pre-processing model (/PREP7)  :        0.2 seconds
Elapsed time spent solution - preprocessing       :        0.3 seconds
Elapsed time spent computing solution             :        4.0 seconds
Elapsed time spent solution - postprocessing      :        0.1 seconds
Elapsed time spent post-processing model (/POST1) :        0.0 seconds
 
Eigensolver used                                  :            Block Lanczos
Equation solver computational rate                :        4.8 Gflops
Equation solver effective I/O rate                :        2.8 GB/sec

Maximum total memory used                         :      371.0 MB
Maximum total memory allocated                    :     3136.0 MB
Total physical memory available                   :          4 GB

Total amount of I/O written to disk               :        0.1 GB
Total amount of I/O read from disk                :        0.0 GB

+------ E N D   D I S T R I B U T E D   A N S Y S   S T A T I S T I C S -------+


 *---------------------------------------------------------------------------*
 |                                                                           |
 |                       DISTRIBUTED ANSYS RUN COMPLETED                     |
 |                                                                           |
 |---------------------------------------------------------------------------|
 |                                                                           |
 | Ansys 2020 R1               Build 20.1         UP20191203     WINDOWS x64 |
 |                                                                           |
 |---------------------------------------------------------------------------|
 |                                                                           |
 | Database Requested(-db)  1024 MB    Scratch Memory Requested      1024 MB |
 | Maximum Database Used       8 MB    Maximum Scratch Memory Used    182 MB |
 |                                                                           |
 |---------------------------------------------------------------------------|
 |                                                                           |
 |        CP Time      (sec) =          4.594       Time  =  04:51:59        |
 |        Elapsed Time (sec) =          8.000       Date  =  04/05/2020      |
 |                                                                           |
 *---------------------------------------------------------------------------*
